23
symmetry c1
C        0.338040000     -0.800964000      1.617480000
C        0.808563000      0.570193000      2.092600000
C        0.439525000      1.482585000     -0.212825000
H       -1.123089000      0.029015000     -0.576964000
C        0.140429000      1.668316000      1.271110000
H        1.512527000      1.558011000     -0.397401000
H       -0.060531000      2.249861000     -0.806211000
C        0.641346000     -0.993660000      0.134384000
H        0.566796000      0.697671000      3.149230000
H        1.892091000      0.639689000      1.977909000
C       -0.028100000      0.108463000     -0.693919000
H        0.277111000     -1.971034000     -0.189339000
H        1.718640000     -0.951698000     -0.041272000
H        0.493180000      2.649034000      1.595101000
H       -0.941234000      1.629352000      1.425287000
H        0.825456000     -1.588779000      2.195153000
H       -0.740897000     -0.890851000      1.771628000
Br      -5.131541000     -1.272489000     -0.469046000
C       -0.352084000     -1.004657000     -2.784864000
O        0.294179000      0.025747000     -2.078479000
H        0.033987000     -1.992672000     -2.511495000
H       -1.434672000     -0.991882000     -2.607603000
H       -0.156533000     -0.819806000     -3.839567000
