18
symmetry c1
C        1.757244665     -1.251702070      0.121070766
C        2.628765205      0.000149993      0.069121248
C        0.760179889      1.261256526     -1.034448399
H       -0.757648801      0.000213037     -1.920298494
C        1.757460072      1.252129762      0.120878683
H        1.301844642      1.308456012     -1.983786555
H        0.118538327      2.143490537     -0.971405811
C        0.760159186     -1.260822152     -1.034338505
H        3.325548368      0.000142087      0.909377618
H        3.214631870      0.000026153     -0.853541213
C       -0.087361099      0.000231694     -1.057253064
H        0.118474014     -2.143083667     -0.971480975
H        1.301832703     -1.307904116     -1.983622668
H        2.379796129      2.147606004      0.069528031
H        1.215123809      1.278065370      1.069372116
H        2.379458113     -2.147287674      0.070066948
H        1.214752947     -1.277381793      1.069433324
Br      -1.338330817     -0.000216499      0.492470650
