23
Coordinates from ORCA-job optts+numfreq_XTB-NEB-CI_im0
  C   0.52871044812697     -1.16594135776324      1.14865348607400
  C   0.64316730129456     -0.00310470382610      2.12957959994249
  C   -1.04251917715428      1.28081045042739      0.79016223874486
  H   -0.39280911680559      0.25898879666690     -1.00747388724720
  C   0.35273977264483      1.31064669977161      1.41020748039318
  H   -1.23607346221242      2.21897420321141      0.26328838179525
  H   -1.80135833832254      1.15799464610657      1.56940869646347
  C   -0.86507270896993     -1.20198236298136      0.52530250409454
  H   -0.07230672629955     -0.14088505502689      2.94408477751212
  H   1.64784645740623      0.02277615314324      2.55482848181260
  C   -1.10803256177916      0.11793783686107     -0.18106073808997
  H   -1.62296448913217     -1.35446640730213      1.30034629821984
  H   -0.93202179431699     -2.02759206231621     -0.18924337202642
  H   1.08029841384144      1.45218926045464      0.60576414561065
  H   0.43007575143032      2.15226664285363      2.10114897259889
  H   1.25949061016003     -1.03474666994535      0.34505222049362
  H   0.73188212435500     -2.11476659483406      1.64957850661434
  Br  -2.87934979311943      0.07911649710595     -1.01992715935308
  O   1.07606829792856      0.47698958037411     -2.24404532811245
  C   1.05590833356914     -0.19433983500397     -3.37641515947043
  H   0.12098337998221     -0.03055584427603     -3.99647964879238
  H   1.90828965259341      0.05995846323078     -4.07405082456089
  H   1.11704762477936     -1.32026833693197     -3.24870967271702
