23
Coordinates from ORCA-job optts+numfreq_im13
  C   0.66646358905812     -1.19605295773955      1.02710345813321
  C   0.65710264216069      0.00515505566552      1.97025760784435
  C   -0.75298625410978      1.27190088624948      0.33716881448714
  H   -1.42944658547964      0.07342530415498     -1.38196145427547
  C   0.52024688653974      1.29882261981681      1.17061402438156
  H   -0.88684293498187      2.19484579500145     -0.23073847272412
  H   -1.61547744940427      1.20040360731039      1.01103022875715
  C   -0.60303220990195     -1.22159459825004      0.19034331012119
  H   -0.17741638751568     -0.08342135860679      2.67549446719197
  H   1.58594884313141      0.02590759035822      2.54089076249674
  C   -0.62032176680656      0.08230917050050     -0.64512616693330
  H   -1.46628537730010     -1.31618553192501      0.86205231168680
  H   -0.64502220101283     -2.08973122519011     -0.47109361990649
  H   1.34383354570509      1.36797729494337      0.46089197639102
  H   0.53480125374073      2.16947081115028      1.82807547392605
  H   1.49154718602691     -1.08616019438627      0.32359456940274
  H   0.78457687853760     -2.12827235464265      1.58286256017061
  Br  -3.94311520760736     -0.13496989513422      0.01972103886954
  O   0.63910770672098      0.29329320083063     -1.35730296084401
  C   0.89369875835797     -0.10765938907977     -2.69741339223706
  H   0.32023172377391      0.45041512099906     -3.45000383731859
  H   1.95131581338107      0.10960886097576     -2.89570667811083
  H   0.75107154698582     -1.17948781300205     -2.87075402151020
