23
Coordinates from ORCA-job optts+numfreq_im4
  C   0.56954646703797     -1.16580077722280      1.08311931972484
  C   0.64788536061834      0.00567707385192      2.05229437623219
  C   -0.98295873851847      1.28336409658137      0.64153620049589
  H   -0.69909781063432      0.18014679501679     -1.20424488743810
  C   0.40709757401071      1.29310546628531      1.27638468196855
  H   -1.10849367183781      2.18715857918035      0.04078865786466
  H   -1.73474717069963      1.27977937842937      1.43754973151085
  C   -0.81593712145295     -1.23838997266772      0.44119890498767
  H   -0.11421515969801     -0.10660347069203      2.83035879381279
  H   1.62640442202098      0.03221774403785      2.53363275482268
  C   -1.20297475932355      0.06438848916376     -0.23819371795787
  H   -1.55280846857900     -1.45860097546592      1.22064532765370
  H   -0.83097519239304     -2.04897239069273     -0.29254733874640
  H   1.16010299386037      1.38396903667756      0.48816232695813
  H   0.48151087804439      2.16062851189791      1.93627858245026
  H   1.32359749739266     -1.03262557791125      0.30111192974002
  H   0.76328610388344     -2.10878574845495      1.60016849493566
  Br  -3.11893214544576     -0.02672794868308     -0.66294355198636
  O   1.08581056884704      0.39813058920604     -1.88377128612306
  C   1.03709964208080     -0.13191911873896     -3.08479001888415
  H   0.21070503975027      0.28443604648451     -3.74427265445877
  H   1.98515047409817      0.02019225725316     -3.67657037278935
  H   0.86294321693740     -1.25476808353647     -3.09589625477383
