23
Coordinates from ORCA-job optts+numfreq_im17
  C   0.65121435713361     -1.21055846187749      0.94904609308294
  C   0.62524077744273     -0.01983552010668      1.90216259741780
  C   -0.74629456514973      1.28655872714510      0.26569652625977
  H   -1.61925399993779      0.06513097126594     -1.33312664989753
  C   0.53434778884724      1.27324235574888      1.10026179762711
  H   -0.79920154560022      2.20136495561108     -0.32922442280352
  H   -1.61727165154281      1.26197381602796      0.91953411624169
  C   -0.59566612735316     -1.22291724262844      0.07196322146896
  H   -0.24015826711832     -0.09565794461956      2.56812627502032
  H   1.52820253781427     -0.01787909734776      2.51494623071373
  C   -0.70085727938394      0.09922740829640     -0.71637225392827
  H   -1.48033211025455     -1.33679160036163      0.71096793299793
  H   -0.59530760867526     -2.07758659685625     -0.60632943177248
  H   1.38216076908914      1.33140575269931      0.41943057922434
  H   0.55681534174923      2.14299712927509      1.76106251909670
  H   1.51619665957654     -1.12512145929952      0.29112076514928
  H   0.72638715310920     -2.14563560074442      1.51158877133375
  Br  -4.37718685186638     -0.11610431733515      0.91802066782301
  O   0.44652637505459      0.48109304013143     -1.48954878409645
  C   1.04393915159146     -0.10322868633524     -2.62938846421880
  H   0.59127756294766      0.22495134221135     -3.57436081403032
  H   2.05924833410215      0.30080679345163     -2.59871670393034
  H   1.10997319842434     -1.19743576435202     -2.62686056877963
