23
Coordinates from ORCA-job optts+numfreq_im19
  C   0.64580500734384     -1.22175409229685      0.92129404671336
  C   0.61861092957998     -0.03167285391518      1.87394388886079
  C   -0.73789516180195      1.28844165644413      0.23906961022878
  H   -1.72482841675101      0.05021690637803     -1.26603343351274
  C   0.54560034539464      1.25784244959741      1.06614286558977
  H   -0.76485925336453      2.19370814016299     -0.37139942800887
  H   -1.60819900736334      1.29525777037835      0.89456045096221
  C   -0.59050298730438     -1.22652537119201      0.03021754672880
  H   -0.25766718208559     -0.09722566970215      2.52699177324124
  H   1.51155423207569     -0.03645109889753      2.50096748326233
  C   -0.75227855336963      0.09870437489619     -0.73941385336348
  H   -1.47979816189161     -1.35207886209744      0.66473618572475
  H   -0.58349769981108     -2.07490545805102     -0.65447553702753
  H   1.39966019561911      1.30589987285500      0.38871353633431
  H   0.57907925753516      2.12914039556858      1.72392360278072
  H   1.52439479175390     -1.14876893656734      0.27842779695980
  H   0.70207771761753     -2.15607325428566      1.48673125386869
  Br  -4.47770858463199     -0.09970369902622      1.21923251415269
  O   0.25319442561679      0.55701839020820     -1.65913021487152
  C   1.10438324151570     -0.08782282094232     -2.58758450971009
  H   0.78257192523227      0.14037182485859     -3.60968571651105
  H   2.07702343637192      0.39017655506737     -2.43653336792008
  H   1.23327950271858     -1.17379621944112     -2.49069649448286
