23
Coordinates from ORCA-job optts+numfreq_product
  C   2.65746153111537     -1.22865693273802     -0.29243067458616
  C   2.80985642247396     -0.03830491934977      0.64625761811408
  C   1.61060027972364      1.44109892421537     -0.98355220046025
  H   0.09286381913459      0.34680571820423     -2.01311793331202
  C   2.89037066909247      1.24434113904849     -0.17206751034677
  H   1.70222027990641      2.31066317714576     -1.63899491379765
  H   0.79534745730057      1.64198652167302     -0.28359318502912
  C   1.37126774288675     -1.10495472828113     -1.10801201499038
  H   1.94840781661317      0.01034870277651      1.31773047217692
  H   3.70859054104917     -0.15268126944811      1.25573996697274
  C   1.17266280689782      0.23672547694740     -1.83749710453948
  H   0.52617542729469     -1.21705138972494     -0.42371912494037
  H   1.30574139999964     -1.90899414342968     -1.84512049658614
  H   3.76404724034767      1.19783613420133     -0.82379310532797
  H   3.01276518275844      2.10392064270205      0.49130459170249
  H   3.53073193593131     -1.28288928092922     -0.94418044135979
  H   2.61179444961602     -2.15575966896050      0.28397462422376
  Br  -2.36181942286116      0.36386286668801      2.38342793571928
  O   1.65300404633038      0.25768816511621     -3.17768009886259
  C   3.04092419286030      0.13358204531824     -3.40743295577740
  H   3.15111750505617      0.17675650387451     -4.49054862589728
  H   3.60294552582114      0.95602435258583     -2.95791353634236
  H   3.42944577354316     -0.82203976458755     -3.04663331281604
