23
Coordinates from ORCA-job optts+numfreq_XTB-NEB-CI_im6
  C   0.64845482228744     -1.18344897666267      1.05179581069515
  C   0.66381448698399      0.01520006878515      1.99408458906755
  C   -0.83492128459695      1.27492925168625      0.43374678468995
  H   -1.25001115191573      0.08690704619637     -1.43443793894262
  C   0.49262839448604      1.29768566681794      1.18731351432930
  H   -0.96194199529620      2.17239206131371     -0.17256519685716
  H   -1.64218579856298      1.26992938924780      1.18013922096096
  C   -0.67483195089859     -1.24109684949559      0.29307058593590
  H   -0.14458497108713     -0.07560395342694      2.72511516068558
  H   1.61314057702445      0.04491125453146      2.53161291433728
  C   -0.82646248523175      0.05801432249968     -0.46068709438872
  H   -1.47111760579997     -1.41546816612975      1.03044426442624
  H   -0.69900798867961     -2.07855351080031     -0.40624558038508
  H   1.27863863336907      1.35573457030737      0.43646134354874
  H   0.53208186333009      2.17718611228918      1.82946608492555
  H   1.43570521783721     -1.05932334079622      0.30912375879602
  H   0.79813677963025     -2.11634588624901      1.59473100193164
  Br  -3.60759492813816     -0.12680407190993     -0.30901332601133
  O   0.81906816157003      0.27362704491008     -1.45152523789545
  C   0.91845059861538     -0.10067646385310     -2.78721976556275
  H   0.30364876660276      0.51636257203151     -3.46959078226778
  H   1.96148735107105      0.01019034509515     -3.14717252494092
  H   0.64740450739930     -1.15574848638811     -2.95864758707804
