23
Coordinates from ORCA-job optts+numfreq_im10
  C   0.63991117012379     -1.18107253093736      1.04885955967674
  C   0.66117106471569      0.01435149291195      1.99238383113174
  C   -0.85700036250975      1.27910407046781      0.45109072645294
  H   -1.17889528582374      0.09235947363136     -1.43624935122468
  C   0.48322357685414      1.29429964134512      1.18618856002792
  H   -0.96972510771288      2.16698851297342     -0.17118029895721
  H   -1.64926634563148      1.29528737771357      1.20852988358344
  C   -0.69639500671723     -1.25032477344529      0.30973287026757
  H   -0.14641556932819     -0.07767103754594      2.72682671009274
  H   1.61101084283405      0.04433276862819      2.52708323324626
  C   -0.94603898205138      0.04771371987748     -0.41074276395583
  H   -1.47392007639648     -1.44643799041811      1.05680864962987
  H   -0.70765354177108     -2.07446071419193     -0.40492852997790
  H   1.26688752042681      1.35121682020917      0.42922505001735
  H   0.52909230734384      2.17530222646709      1.82584865993017
  H   1.42250011553653     -1.05287920922295      0.29913304144413
  H   0.79846362720567     -2.11540402546306      1.58777950320502
  Br  -3.52328384773808     -0.12289848202404     -0.35628107843575
  O   0.89495884941658      0.27500201967288     -1.47818505460476
  C   0.93779840189765     -0.09403098060130     -2.78912389042921
  H   0.29558361055284      0.52948107244403     -3.45177987542304
  H   1.96833845559269      0.00023089455396     -3.19338380891932
  H   0.63965458318002     -1.15049034704605     -2.95763562677820
