23
Coordinates from ORCA-job optts+numfreq_im14
  C   0.66444380884912     -1.19931104293808      1.00463005394256
  C   0.64717897023285     -0.00169919111008      1.95159598218701
  C   -0.74425937869100      1.27686793619581      0.30995799846898
  H   -1.48370802856616      0.07248815249013     -1.37031994040670
  C   0.52622594591897      1.29310129351209      1.15242632103549
  H   -0.85268855415282      2.20024928975506     -0.26392515940864
  H   -1.61440037525246      1.21089922556305      0.96838758500288
  C   -0.59620914298891     -1.22044209469484      0.15159556077779
  H   -0.19868224406707     -0.08773718014337      2.64268798094304
  H   1.56667813872351      0.01308098557203      2.53796426197872
  C   -0.63611752392407      0.08809884125792     -0.67076661897700
  H   -1.47044814340426     -1.31224853935618      0.80623585638539
  H   -0.62326994977065     -2.08694970759998     -0.51312983705813
  H   1.36287325630480      1.36321839375432      0.45865030234515
  H   0.53658367986721      2.16186406604520      1.81367784087282
  H   1.50492590495527     -1.09714771527744      0.31836409251000
  H   0.76821909334937     -2.13251310238238      1.56362918096700
  Br  -4.10424801087478     -0.13344520015255      0.29762486691381
  O   0.59862487590304      0.34011402838671     -1.37855967089228
  C   0.93234558907586     -0.10948726967166     -2.67843495885179
  H   0.37549082182916      0.38881932955789     -3.48388072958663
  H   1.98483275913197      0.16593398092982     -2.80463272123515
  H   0.85560850755105     -1.19375447969347     -2.81377824791433
