23
Coordinates from ORCA-job optts+numfreq_im2
  C   0.54846715798936     -1.16657549805405      1.11502389408557
  C   0.64546657298163      0.00071591470243      2.08978475283003
  C   -1.01239575720794      1.28302513266420      0.71610955047959
  H   -0.53456171800890      0.22077090467614     -1.11012732287783
  C   0.38098030574461      1.30121453428039      1.34105269654531
  H   -1.17072662827142      2.20442519444124      0.15060651314476
  H   -1.76890148646301      1.22186883780197      1.50594362730736
  C   -0.84166523892020     -1.22162357532480      0.48396131700723
  H   -0.09517835256685     -0.12326199952923      2.88574723150133
  H   1.63653821601463      0.02599545201513      2.54477874885106
  C   -1.15581041513114      0.09035128897000     -0.21064197634565
  H   -1.58970909952027     -1.40891870199631      1.26205420808141
  H   -0.88325014166631     -2.03982810371640     -0.24041073184395
  H   1.12079864538031      1.41517637991457      0.54277653393250
  H   0.45881552530072      2.15658538721178      2.01529470257760
  H   1.29053582979744     -1.03400679188684      0.32123885780031
  H   0.74781874204223     -2.11223175355980      1.62385888148005
  Br  -3.01132403178492      0.02375151401593     -0.84140769781948
  O   1.08574234580305      0.44012735390448     -2.05851807120489
  C   1.04738915478988     -0.16183920575950     -3.22812723160240
  H   0.16133630500954      0.13324075730210     -3.87165561502059
  H   1.95229808402774      0.04441333547761     -3.87018949790386
  H   0.98733598465981     -1.29337635755103     -3.16715337100547
