23
Coordinates from ORCA-job optts+numfreq_XTB-NEB-CI_im3
  C   0.61667901648334     -1.17067383741606      1.04633929201253
  C   0.65589334857125      0.01561887110997      1.99906924310926
  C   -0.91080871521863      1.27955184808957      0.50198946497885
  H   -1.03790431154275      0.10341057009660     -1.37078039783106
  C   0.46127851017234      1.28664210409647      1.18465260382099
  H   -0.99883492389577      2.15869084951553     -0.14130183685814
  H   -1.66775396174950      1.33907596034926      1.28626441885350
  C   -0.74990027364169     -1.25737601985463      0.35780971447886
  H   -0.13953024621017     -0.07707185423338      2.74403073942882
  H   1.61436699656537      0.04631660615532      2.52131743589591
  C   -1.19507988894236      0.02980038769530     -0.30568476590912
  H   -1.48690506968891     -1.49747782386237      1.12638030766814
  H   -0.73682938259217     -2.06638965496956     -0.37816096252335
  H   1.23477467002853      1.34314406372588      0.41824670146975
  H   0.52382435687467      2.17215972032001      1.82314951953128
  H   1.38980153595399     -1.04125873545150      0.28693415399193
  H   0.79282596097994     -2.10796029031916      1.58189053210229
  Br  -3.32941238539516     -0.10423900342975     -0.37328796335672
  O   0.99096134804852      0.31180864051937     -1.59855051842551
  C   0.98931133122447     -0.08909612886313     -2.85289270079400
  H   0.30715510767025      0.50799586400703     -3.53348280853455
  H   2.00684975363657     -0.01762807107898     -3.32147918355196
  H   0.66923722266788     -1.16504406620181     -3.00245298955768
