23
Coordinates from ORCA-job optts+numfreq_XTB-NEB-CI_im2
  C   0.59335072891265     -1.16823606329992      1.05297170129845
  C   0.65063459977253      0.01369064240104      2.01044587847177
  C   -0.95216055831101      1.28223210726308      0.56210886049637
  H   -0.89757476059313      0.12244444246315     -1.28195911162041
  C   0.43691009522516      1.28611291431798      1.20285700794577
  H   -1.04655117375542      2.15943643911713     -0.08491967421534
  H   -1.69590557686627      1.34850895198606      1.35883958693264
  C   -0.78979157228457     -1.26103991919681      0.40547831438875
  H   -0.13130000844988     -0.08303214400867      2.76903026659964
  H   1.61809767219406      0.04416591067637      2.51526551181584
  C   -1.24437417465602      0.03231364313018     -0.25472022991941
  H   -1.51210506121106     -1.51599460394305      1.18380444651802
  H   -0.78228517961839     -2.06164133924746     -0.34142576172963
  H   1.19268258027367      1.34262619938106      0.41727165003725
  H   0.51936440682360      2.17048141922642      1.84025409050595
  H   1.34838432899704     -1.03091617049444      0.27527119612860
  H   0.79090755660501     -2.10650201740365      1.57876053587387
  Br  -3.22587348991816     -0.08273939103243     -0.45654537516431
  O   1.05429332886602      0.35257236396273     -1.70545557924756
  C   1.02521359422529     -0.09423982721383     -2.93654812322230
  H   0.30213615781808      0.45905218745148     -3.61818884953921
  H   2.02435700357552     -0.02348029780525     -3.45403838006871
  H   0.72158950237528     -1.18581544773118     -3.03855796228605
