23
Coordinates from ORCA-job optts+numfreq_im20
  C   0.64373808645526     -1.22704525880271      0.91154954876054
  C   0.61694303431852     -0.03622847548724      1.86312338972610
  C   -0.72447954768547      1.28992872107786      0.22396494662173
  H   -1.76682769082736      0.04900510425345     -1.22452925639471
  C   0.55431400675753      1.25265507504741      1.05384965243518
  H   -0.74628336209079      2.19113117735847     -0.39137164148352
  H   -1.59760872104264      1.30831466063710      0.87960797190811
  C   -0.58814226207662     -1.22866477193166      0.01494137653712
  H   -0.26473386009267     -0.09688641780689      2.51017685385307
  H   1.50484356331312     -0.04452037546880      2.49671594976558
  C   -0.77149255639657      0.09649828439530     -0.74709782919433
  H   -1.47917912733140     -1.35816177534512      0.64830140244132
  H   -0.57956153513090     -2.07377342430088     -0.67284543153145
  H   1.41368324936244      1.29666670524713      0.38047052974764
  H   0.58955523133665      2.12384065513409      1.71107354117782
  H   1.52783092764540     -1.15944233429431      0.27457562017572
  H   0.69205522406097     -2.16047204663290      1.47828496803037
  Br  -4.50914094205897     -0.09163790865009      1.33173551446558
  O   0.12658312706117      0.54617850597346     -1.78249767237308
  C   1.12789223502750     -0.07748858078174     -2.56321170546549
  H   0.87654324304737      0.11932249860446     -3.60972162698830
  H   2.07119734702566      0.43820409967212     -2.34970843579337
  H   1.28227032932181     -1.15742411789852     -2.43738766642165
