23
Coordinates from ORCA-job optts+numfreq_initial_path E   0.000000000000
  C       0.526810     -1.167102      1.148884
  C       0.642164     -0.004313      2.129791
  C      -1.041360      1.281327      0.789311
  H      -0.392917      0.258364     -1.008682
  C       0.353613      1.309652      1.410032
  H      -1.233732      2.219807      0.262596
  H      -1.800569      1.159090      1.568318
  C      -0.866532     -1.201525      0.524534
  H      -0.073811     -0.141146      2.944001
  H       1.646712      0.020377      2.555408
  C      -1.107962      0.118554     -0.181929
  H      -1.625054     -1.353356      1.299110
  H      -0.933697     -2.027105     -0.190037
  H       1.081738      1.450233      0.605944
  H       0.431555      2.151277      2.100913
  H       1.258558     -1.036996      0.345980
  H       0.728242     -2.116199      1.650008
  Br     -2.879475      0.081585     -1.020698
  O       1.078762      0.477167     -2.242221
  C       1.057392     -0.193125     -3.375103
  H       0.120836     -0.030712     -3.993115
  H       1.907818      0.063282     -4.074412
  H       1.120911     -1.319137     -3.248633
23
Coordinates from ORCA-job optts+numfreq_initial_path E   0.000000000000
  C       0.538952     -1.168615      1.137806
  C       0.643641     -0.002550      2.115045
  C      -1.022562      1.284035      0.755348
  H      -0.473756      0.242600     -1.067067
  C       0.367900      1.307653      1.384890
  H      -1.204334      2.216398      0.214630
  H      -1.785163      1.178131      1.533155
  C      -0.849373     -1.210487      0.503820
  H      -0.082890     -0.134087      2.920859
  H       1.642811      0.022609      2.553191
  C      -1.111852      0.106971     -0.188527
  H      -1.609068     -1.367914      1.275827
  H      -0.908809     -2.034118     -0.213299
  H       1.102295      1.438569      0.585722
  H       0.442268      2.154194      2.070199
  H       1.276335     -1.038772      0.340761
  H       0.735612     -2.116407      1.643329
  Br     -2.955018      0.058648     -0.951337
  O       1.075915      0.460464     -2.161939
  C       1.050002     -0.181435     -3.311743
  H       0.134912      0.035659     -3.942298
  H       1.924691      0.058637     -3.982716
  H       1.067493     -1.310183     -3.215656
23
Coordinates from ORCA-job optts+numfreq_initial_path E   0.000000000000
  C       0.550886     -1.169991      1.126828
  C       0.645041     -0.000726      2.100463
  C      -1.003919      1.286154      0.721115
  H      -0.558790      0.226187     -1.124749
  C       0.381899      1.305628      1.360037
  H      -1.175261      2.212363      0.167054
  H      -1.769593      1.196818      1.497818
  C      -0.832333     -1.218672      0.482871
  H      -0.091806     -0.127084      2.897825
  H       1.638747      0.024928      2.550929
  C      -1.111931      0.096293     -0.197255
  H      -1.593028     -1.382058      1.252457
  H      -0.884152     -2.040567     -0.236427
  H       1.122397      1.427050      0.565840
  H       0.452718      2.156974      2.039819
  H       1.293770     -1.040393      0.335582
  H       0.742817     -2.116466      1.636681
  Br     -3.027092      0.036015     -0.880779
  O       1.071317      0.442134     -2.081242
  C       1.042288     -0.169985     -3.248930
  H       0.151586      0.101278     -3.890901
  H       1.940168      0.053042     -3.890958
  H       1.014270     -1.298921     -3.184077
23
Coordinates from ORCA-job optts+numfreq_initial_path E   0.000000000000
  C       0.562614     -1.171268      1.115926
  C       0.646372      0.001150      2.085988
  C      -0.985420      1.287526      0.686387
  H      -0.645979      0.209091     -1.180621
  C       0.395637      1.303575      1.335400
  H      -1.146420      2.207641      0.119699
  H      -1.753844      1.215050      1.462038
  C      -0.815443     -1.225950      0.461515
  H      -0.100601     -0.120121      2.874804
  H       1.634512      0.027321      2.548610
  C      -1.108104      0.086570     -0.209441
  H      -1.576937     -1.395673      1.228807
  H      -0.859676     -2.046426     -0.259513
  H       1.142199      1.415691      0.546327
  H       0.462942      2.159627      2.009675
  H       1.311001     -1.041967      0.330516
  H       0.749847     -2.116406      1.630044
  Br     -3.095729      0.013712     -0.809183
  O       1.062973      0.422133     -1.999945
  C       1.034061     -0.158634     -3.186247
  H       0.170644      0.166030     -3.838425
  H       1.954002      0.046551     -3.798798
  H       0.961349     -1.285223     -3.153561
23
Coordinates from ORCA-job optts+numfreq_initial_path E   0.000000000000
  C       0.574148     -1.172469      1.105046
  C       0.647631      0.003078      2.071538
  C      -0.967053      1.288058      0.650996
  H      -0.733207      0.191296     -1.233321
  C       0.409157      1.301478      1.310856
  H      -1.117702      2.202191      0.072369
  H      -1.737912      1.232780      1.425580
  C      -0.798723     -1.232280      0.439627
  H      -0.109330     -0.113173      2.851670
  H       1.630082      0.029779      2.546212
  C      -1.101114      0.077705     -0.225871
  H      -1.560803     -1.408718      1.204716
  H      -0.835311     -2.051709     -0.282660
  H       1.161835      1.404450      0.527122
  H       0.472996      2.162156      1.979618
  H       1.328132     -1.043546      0.325585
  H       0.756704     -2.116244      1.623380
  Br     -3.161206     -0.008283     -0.736674
  O       1.050011      0.400722     -1.918391
  C       1.025128     -0.147331     -3.123443
  H       0.191770      0.229882     -3.784289
  H       1.966009      0.039208     -3.705919
  H       0.908757     -1.269030     -3.123749
23
Coordinates from ORCA-job optts+numfreq_initial_path E   0.000000000000
  C       0.585506     -1.173604      1.094106
  C       0.648811      0.005059      2.057015
  C      -0.948794      1.287719      0.614832
  H      -0.818758      0.172850     -1.281807
  C       0.422510      1.299310      1.286249
  H      -1.088983      2.195992      0.024872
  H      -1.721798      1.250026      1.388267
  C      -0.782168     -1.237697      0.417131
  H      -0.118045     -0.106209      2.828285
  H       1.625423      0.032298      2.543701
  C      -1.092214      0.069493     -0.246696
  H      -1.544628     -1.421225      1.180069
  H      -0.810980     -2.056449     -0.305972
  H       1.181394      1.393231      0.508091
  H       0.482942      2.164555      1.949473
  H       1.345225     -1.045135      0.320750
  H       0.763399     -2.115977      1.616637
  Br     -3.223951     -0.030023     -0.663331
  O       1.032677      0.378287     -1.837053
  C       1.015320     -0.136051     -3.060380
  H       0.214582      0.292812     -3.727892
  H       1.976039      0.031051     -3.612067
  H       0.856491     -1.250313     -3.094284
23
Coordinates from ORCA-job optts+numfreq_initial_path E   0.000000000000
  C       0.596708     -1.174672      1.083020
  C       0.649907      0.007095      2.042318
  C      -0.930608      1.286535      0.577836
  H      -0.901536      0.153890     -1.325592
  C       0.435752      1.297040      1.261415
  H      -1.060136      2.189043     -0.022965
  H      -1.705500      1.266854      1.349977
  C      -0.765756     -1.242288      0.393986
  H      -0.126789     -0.099199      2.804514
  H       1.620499      0.034876      2.541036
  C      -1.082788      0.061686     -0.271574
  H      -1.528409     -1.433282      1.154796
  H      -0.786599     -2.060697     -0.329547
  H       1.200930      1.381914      0.489054
  H       0.492854      2.166810      1.919057
  H       1.362302     -1.046707      0.315937
  H       0.769956     -2.115598      1.609755
  Br     -3.284501     -0.051592     -0.589177
  O       1.011969      0.355192     -1.756246
  C       1.004533     -0.124749     -2.996990
  H       0.238684      0.354765     -3.668727
  H       1.983986      0.022144     -3.517066
  H       0.804543     -1.229060     -3.064819
23
Coordinates from ORCA-job optts+numfreq_initial_path E   0.000000000000
  C       0.607761     -1.175670      1.071727
  C       0.650921      0.009184      2.027393
  C      -0.912494      1.284563      0.540068
  H      -0.980840      0.134665     -1.364622
  C       0.448920      1.294639      1.236263
  H      -1.031098      2.181363     -0.071175
  H      -1.689042      1.283318      1.310728
  C      -0.749491     -1.246151      0.370224
  H      -0.135566     -0.092134      2.780296
  H       1.615299      0.037505      2.538182
  C      -1.074016      0.054077     -0.299878
  H      -1.512173     -1.444974      1.128910
  H      -0.762141     -2.064480     -0.353430
  H       1.220418      1.370391      0.469859
  H       0.502784      2.168899      1.888280
  H       1.379323     -1.048212      0.311055
  H       0.776385     -2.115097      1.602691
  Br     -3.343302     -0.073024     -0.514390
  O       0.989144      0.331754     -1.676156
  C       0.992751     -0.113367     -2.933339
  H       0.263660      0.415452     -3.606596
  H       1.989742      0.012612     -3.421029
  H       0.753054     -1.205313     -3.035063
23
Coordinates from ORCA-job optts+numfreq_initial_path E   0.000000000000
  C       0.618671     -1.176597      1.060186
  C       0.651859      0.011318      2.012208
  C      -0.894445      1.281884      0.501625
  H      -1.056361      0.115454     -1.399180
  C       0.462052      1.292084      1.210736
  H      -1.001814      2.172979     -0.119751
  H      -1.672433      1.299473      1.270588
  C      -0.733376     -1.249392      0.345897
  H      -0.144362     -0.085015      2.755604
  H       1.609824      0.040173      2.535110
  C      -1.066761      0.046511     -0.330910
  H      -1.495941     -1.456379      1.102452
  H      -0.737588     -2.067815     -0.377654
  H       1.239811      1.358557      0.450366
  H       0.512780      2.170801      1.857090
  H       1.396231     -1.049598      0.306015
  H       0.782699     -2.114471      1.595410
  Br     -3.400783     -0.094356     -0.439145
  O       0.965295      0.308211     -1.596734
  C       0.980032     -0.101822     -2.869482
  H       0.289166      0.474525     -3.541558
  H       1.993241      0.002625     -3.324145
  H       0.702203     -1.179148     -3.004728
23
Coordinates from ORCA-job optts+numfreq_initial_path E   0.000000000000
  C       0.629457     -1.177460      1.048377
  C       0.652736      0.013488      1.996753
  C      -0.876447      1.278591      0.462610
  H      -1.128080      0.096504     -1.429753
  C       0.475193      1.289359      1.184810
  H      -0.972229      2.163920     -0.168674
  H      -1.655661      1.315379      1.229652
  C      -0.717408     -1.252123      0.321067
  H      -0.153156     -0.077847      2.730430
  H       1.604086      0.042866      2.531796
  C      -1.061531      0.038883     -0.364034
  H      -1.479729     -1.467570      1.075479
  H      -0.712927     -2.070717     -0.402249
  H       1.259054      1.346307      0.430447
  H       0.522897      2.172500      1.825458
  H       1.412965     -1.050819      0.300733
  H       0.788914     -2.113726      1.587890
  Br     -3.457376     -0.115624     -0.363594
  O       0.941137      0.284748     -1.517751
  C       0.966486     -0.090023     -2.805431
  H       0.314972      0.531650     -3.473883
  H       1.994477     -0.007611     -3.226607
  H       0.652170     -1.150675     -2.973529
23
Coordinates from ORCA-job optts+numfreq_initial_path E   0.000000000000
  C       0.632466     -1.181764      1.039344
  C       0.649190      0.009585      1.987275
  C      -0.859053      1.284268      0.440348
  H      -1.176376      0.091237     -1.436546
  C       0.484246      1.288209      1.177246
  H      -0.945917      2.168362     -0.194058
  H      -1.640982      1.330420      1.203863
  C      -0.707176     -1.254932      0.299815
  H      -0.164524     -0.078514      2.712659
  H       1.594783      0.035469      2.532606
  C      -1.051870      0.039518     -0.376263
  H      -1.472399     -1.473726      1.050190
  H      -0.698144     -2.072068     -0.424939
  H       1.281104      1.346556      0.436937
  H       0.528396      2.170914      1.818967
  H       1.424339     -1.060194      0.299923
  H       0.783468     -2.117809      1.581881
  Br     -3.608230     -0.118435     -0.216056
  O       0.888368      0.306422     -1.524994
  C       0.981527     -0.088178     -2.800022
  H       0.341644      0.506212     -3.498953
  H       2.026071      0.029174     -3.163775
  H       0.709071     -1.160725     -2.945446
23
Coordinates from ORCA-job optts+numfreq_initial_path E   0.000000000000
  C       0.634694     -1.185789      1.029456
  C       0.645281      0.005704      1.977287
  C      -0.842917      1.289709      0.418611
  H      -1.223349      0.086851     -1.442277
  C       0.492752      1.286916      1.168970
  H      -0.922005      2.173149     -0.217868
  H      -1.628056      1.343990      1.177872
  C      -0.697830     -1.257084      0.277946
  H      -0.175885     -0.079350      2.694582
  H       1.585184      0.028024      2.532534
  C      -1.042260      0.040820     -0.390127
  H      -1.466762     -1.478787      1.023453
  H      -0.684517     -2.072894     -0.448070
  H       1.301882      1.345972      0.442174
  H       0.533498      2.168962      1.811990
  H       1.434499     -1.068935      0.297988
  H       0.777380     -2.121602      1.574807
  Br     -3.748964     -0.120222     -0.061118
  O       0.832062      0.326631     -1.536116
  C       0.999077     -0.087842     -2.794323
  H       0.372346      0.478674     -3.523371
  H       2.055736      0.067455     -3.099000
  H       0.768157     -1.170353     -2.915402
23
Coordinates from ORCA-job optts+numfreq_initial_path E   0.000000000000
  C       0.636083     -1.189665      1.018738
  C       0.641074      0.001837      1.966633
  C      -0.828084      1.295005      0.397460
  H      -1.270029      0.083158     -1.446574
  C       0.500860      1.285315      1.159624
  H      -0.900297      2.178446     -0.240043
  H      -1.616940      1.356075      1.151785
  C      -0.689434     -1.258755      0.255595
  H      -0.187151     -0.080253      2.676104
  H       1.575388      0.020560      2.531378
  C      -1.033177      0.042644     -0.405261
  H      -1.462892     -1.482787      0.995446
  H      -0.672001     -2.073311     -0.471583
  H       1.321090      1.344156      0.445232
  H       0.538590      2.166547      1.804053
  H       1.443380     -1.077281      0.294919
  H       0.770538     -2.125201      1.566777
  Br     -3.878357     -0.120840      0.099903
  O       0.771776      0.345146     -1.551546
  C       1.019263     -0.088518     -2.787615
  H       0.407457      0.449004     -3.546908
  H       2.083117      0.107804     -3.031596
  H       0.829746     -1.179088     -2.882520
23
Coordinates from ORCA-job optts+numfreq_initial_path E   0.000000000000
  C       0.636609     -1.193504      1.007252
  C       0.636667     -0.002025      1.955222
  C      -0.814522      1.300168      0.376889
  H      -1.317309      0.079977     -1.448962
  C       0.508701      1.283261      1.148949
  H      -0.880498      2.184275     -0.260641
  H      -1.607515      1.366744      1.125743
  C      -0.682034     -1.260085      0.232924
  H      -0.198185     -0.081146      2.657214
  H       1.565535      0.013122      2.528997
  C      -1.024972      0.044830     -0.421334
  H      -1.460730     -1.485808      0.966469
  H      -0.660602     -2.073394     -0.495390
  H       1.338514      1.340861      0.445373
  H       0.543991      2.163584      1.794818
  H       1.450975     -1.085462      0.290777
  H       0.762893     -2.128689      1.557919
  Br     -3.995623     -0.120217      0.265177
  O       0.707156      0.361556     -1.571840
  C       1.042025     -0.089657     -2.779162
  H       0.447452      0.417267     -3.569328
  H       2.107601      0.150671     -2.961030
  H       0.893870     -1.186330     -2.846037
23
Coordinates from ORCA-job optts+numfreq_initial_path E   0.000000000000
  C       0.636300     -1.197405      0.995117
  C       0.632183     -0.005886      1.943034
  C      -0.802069      1.305136      0.356792
  H      -1.365970      0.077105     -1.448848
  C       0.516406      1.280641      1.136796
  H      -0.862128      2.190511     -0.279890
  H      -1.599522      1.376110      1.099791
  C      -0.675622     -1.261207      0.210126
  H      -0.208843     -0.081963      2.637955
  H       1.555781      0.005759      2.525340
  C      -1.017740      0.047192     -0.438089
  H      -1.460115     -1.487962      0.936889
  H      -0.650318     -2.073217     -0.519365
  H       1.354067      1.335982      0.442114
  H       0.549936      2.160005      1.784083
  H       1.457359     -1.093709      0.285713
  H       0.754462     -2.132144      1.548405
  Br     -4.100428     -0.118336      0.432479
  O       0.637972      0.375300     -1.597614
  C       1.067004     -0.090620     -2.768192
  H       0.492844      0.383691     -3.590332
  H       2.128270      0.196360     -2.886975
  H       0.960172     -1.191343     -2.805330
23
Coordinates from ORCA-job optts+numfreq_initial_path E   0.000000000000
  C       0.635243     -1.201461      0.982514
  C       0.627739     -0.009745      1.930132
  C      -0.790394      1.309771      0.336916
  H      -1.416605      0.074325     -1.445540
  C       0.524099      1.277378      1.123136
  H      -0.844495      2.196877     -0.298246
  H      -1.592581      1.384315      1.073772
  C      -0.670110     -1.262254      0.187399
  H      -0.219021     -0.082643      2.618405
  H       1.546256     -0.001484      2.520474
  C      -1.011250      0.049511     -0.455426
  H      -1.460807     -1.489364      0.907076
  H      -0.641093     -2.072878     -0.543348
  H       1.367823      1.329561      0.435308
  H       0.556531      2.155775      1.771791
  H       1.462705     -1.102251      0.279993
  H       0.745317     -2.135640      1.538457
  Br     -4.192904     -0.115230      0.599430
  O       0.564203      0.385694     -1.629458
  C       1.093455     -0.090687     -2.753936
  H       0.544094      0.348739     -3.609488
  H       2.143932      0.244991     -2.809397
  H       1.027862     -1.193301     -2.759966
23
Coordinates from ORCA-job optts+numfreq_initial_path E   0.000000000000
  C       0.633575     -1.205753      0.969679
  C       0.623427     -0.013604      1.916651
  C      -0.779023      1.313866      0.316846
  H      -1.469454      0.071445     -1.438304
  C       0.531872      1.273449      1.108090
  H      -0.826723      2.202936     -0.316423
  H      -1.586230      1.391505      1.047292
  C      -0.665324     -1.263344      0.164913
  H      -0.228691     -0.083135      2.598648
  H       1.537031     -0.008576      2.514594
  C      -1.004915      0.051553     -0.473488
  H      -1.462510     -1.490102      0.877333
  H      -0.632802     -2.072499     -0.567166
  H       1.380035      1.321789      0.425249
  H       0.563715      2.150914      1.758040
  H       1.467281     -1.111311      0.273990
  H       0.735562     -2.139250      1.528339
  Br     -4.273635     -0.110974      0.763834
  O       0.486173      0.391964     -1.667817
  C       1.120215     -0.089106     -2.735715
  H       0.601476      0.313139     -3.626158
  H       2.153222      0.296463     -2.728662
  H       1.095724     -1.191371     -2.709764
23
Coordinates from ORCA-job optts+numfreq_initial_path E   0.000000000000
  C       0.631459     -1.210346      0.956872
  C       0.619279     -0.017471      1.902790
  C      -0.767393      1.317162      0.296021
  H      -1.524200      0.068362     -1.426499
  C       0.539753      1.268894      1.091935
  H      -0.807863      2.208115     -0.335379
  H      -1.579973      1.397817      1.019734
  C      -0.661016     -1.264561      0.142763
  H      -0.237937     -0.083402      2.578750
  H       1.528080     -0.015513      2.508012
  C      -0.997849      0.053093     -0.492723
  H      -1.464920     -1.490198      0.847829
  H      -0.625250     -2.072226     -0.590660
  H       1.391147      1.312993      0.412727
  H       0.571227      2.145504      1.743077
  H       1.471421     -1.121075      0.268161
  H       0.725284     -2.143039      1.518318
  Br     -4.343576     -0.105673      0.924036
  O       0.404644      0.393286     -1.712847
  C       1.145778     -0.085197     -2.713064
  H       0.664881      0.277855     -3.639432
  H       2.154794      0.350453     -2.645572
  H       1.162233     -1.184834     -2.654848
23
Coordinates from ORCA-job optts+numfreq_initial_path E   0.000000000000
  C       0.629043     -1.215269      0.944312
  C       0.615250     -0.021364      1.888770
  C      -0.754993      1.319385      0.273837
  H      -1.579766      0.065126     -1.409820
  C       0.547671      1.263820      1.075088
  H      -0.787097      2.211776     -0.356175
  H      -1.573376      1.403340      0.990393
  C      -0.656919     -1.265917      0.120930
  H      -0.246955     -0.083437      2.558740
  H       1.519271     -0.022318      2.501100
  C      -0.989035      0.053973     -0.513899
  H      -1.467776     -1.489590      0.818537
  H      -0.618193     -2.072187     -0.613730
  H       1.401739      1.303616      0.398982
  H       0.578626      2.139704      1.727280
  H       1.475469     -1.131655      0.262961
  H       0.714532     -2.147053      1.508604
  Br     -4.403979     -0.099452      1.079326
  O       0.320957      0.388876     -1.764218
  C       1.168501     -0.078475     -2.685845
  H       0.733616      0.243933     -3.648146
  H       2.147607      0.406390     -2.561357
  H       1.225810     -1.173224     -2.595669
23
Coordinates from ORCA-job optts+numfreq_initial_path E   0.000000000000
  C       0.626506     -1.220617      0.932295
  C       0.611259     -0.025325      1.874847
  C      -0.741077      1.320233      0.249450
  H      -1.634674      0.061846     -1.387977
  C       0.555602      1.258343      1.058048
  H      -0.763287      2.213065     -0.380379
  H      -1.565910      1.408201      0.958099
  C      -0.652694     -1.267513      0.099412
  H      -0.256046     -0.083179      2.538577
  H       1.510375     -0.029047      2.494334
  C      -0.977273      0.053883     -0.537965
  H      -1.470875     -1.488047      0.789363
  H      -0.611418     -2.072731     -0.636130
  H       1.412708      1.294064      0.385679
  H       0.585253      2.133727      1.711038
  H       1.479833     -1.143240      0.258976
  H       0.703211     -2.151393      1.499498
  Br     -4.455228     -0.092410      1.228833
  O       0.236217      0.377588     -1.821209
  C       1.186405     -0.068613     -2.654187
  H       0.806397      0.213094     -3.650874
  H       2.130241      0.464264     -2.477124
  H       1.284476     -1.156193     -2.532603
23
Coordinates from ORCA-job optts+numfreq_initial_path E   0.000000000000
  C       0.623778     -1.226254      0.920674
  C       0.606962     -0.029355      1.861071
  C      -0.725798      1.319669      0.222681
  H      -1.685872      0.059005     -1.362800
  C       0.563152      1.252734      1.041256
  H      -0.736779      2.211718     -0.408414
  H      -1.557712      1.412405      0.922618
  C      -0.648269     -1.269041      0.077715
  H      -0.265720     -0.082718      2.518057
  H       1.500902     -0.035775      2.487980
  C      -0.962400      0.053087     -0.565963
  H      -1.474222     -1.485422      0.759631
  H      -0.604615     -2.073739     -0.658172
  H       1.424561      1.284880      0.374396
  H       0.590482      2.127846      1.694782
  H       1.484611     -1.155592      0.256305
  H       0.691146     -2.155961      1.490790
  Br     -4.499631     -0.084837      1.376063
  O       0.154020      0.359264     -1.881524
  C       1.199016     -0.056016     -2.619013
  H       0.880835      0.185683     -3.646483
  H       2.103566      0.522659     -2.394726
  H       1.337986     -1.134238     -2.466924
23
Coordinates from ORCA-job optts+numfreq_initial_path E   0.000000000000
  C       0.620797     -1.232101      0.909279
  C       0.602179     -0.033451      1.847385
  C      -0.709380      1.317781      0.193627
  H      -1.731299      0.056907     -1.336033
  C       0.570143      1.247139      1.024858
  H      -0.708053      2.207746     -0.440246
  H      -1.548906      1.416005      0.884056
  C      -0.643665     -1.270300      0.055534
  H      -0.276222     -0.082090      2.497003
  H       1.490597     -0.042552      2.482073
  C      -0.944835      0.051776     -0.598319
  H      -1.477825     -1.481649      0.728966
  H      -0.597656     -2.075172     -0.680008
  H       1.437555      1.276270      0.365872
  H       0.594090      2.122209      1.678636
  H       1.489769     -1.168538      0.254874
  H       0.678198     -2.160691      1.482275
  Br     -4.538302     -0.076909      1.522956
  O       0.076955      0.334017     -1.942682
  C       1.206220     -0.041281     -2.581265
  H       0.954997      0.161909     -3.634432
  H       2.068298      0.580870     -2.315121
  H       1.386347     -1.107895     -2.399288
23
Coordinates from ORCA-job optts+numfreq_initial_path E   0.000000000000
  C       0.617462     -1.238072      0.897896
  C       0.596702     -0.037585      1.833654
  C      -0.692135      1.314806      0.162566
  H      -1.769406      0.055711     -1.309924
  C       0.576467      1.241679      1.008814
  H      -0.677760      2.201471     -0.475465
  H      -1.539731      1.419100      0.842649
  C      -0.638935     -1.271163      0.032579
  H      -0.287813     -0.081296      2.475170
  H       1.479159     -0.049399      2.476577
  C      -0.925491      0.050120     -0.634906
  H      -1.481748     -1.476739      0.696975
  H      -0.590419     -2.077004     -0.701823
  H       1.451744      1.268299      0.360356
  H       0.595957      2.116916      1.662567
  H       1.495202     -1.181890      0.254543
  H       0.664180     -2.165498      1.473717
  Br     -4.572058     -0.068857      1.671706
  O       0.007693      0.302463     -2.001628
  C       1.208666     -0.025329     -2.542074
  H       1.027051      0.141942     -3.614738
  H       2.025375      0.638277     -2.238983
  H       1.429839     -1.077954     -2.330228
23
Coordinates from ORCA-job optts+numfreq_initial_path E   0.000000000000
  C       0.613674     -1.244048      0.886271
  C       0.590362     -0.041675      1.819667
  C      -0.674541      1.311118      0.130028
  H      -1.799674      0.055379     -1.286783
  C       0.582108      1.236441      0.992878
  H      -0.646836      2.193630     -0.513047
  H      -1.530535      1.421813      0.799003
  C      -0.634177     -1.271569      0.008633
  H      -0.300656     -0.080312      2.452320
  H       1.466364     -0.056278      2.471327
  C      -0.905719      0.048321     -0.674963
  H      -1.486042     -1.470881      0.663381
  H      -0.582783     -2.079124     -0.723861
  H       1.466855      1.260890      0.357382
  H       0.596241      2.111999      1.646380
  H       1.500719     -1.195407      0.255032
  H       0.649005     -2.170261      1.464842
  Br     -4.602012     -0.061018      1.824478
  O      -0.051437      0.266127     -2.055337
  C       1.207877     -0.009272     -2.502563
  H       1.095828      0.125547     -3.588142
  H       1.976241      0.694033     -2.166688
  H       1.469141     -1.045454     -2.260238
23
Coordinates from ORCA-job optts+numfreq_initial_path E   0.000000000000
  C       0.609393     -1.249905      0.874200
  C       0.583071     -0.045596      1.805209
  C      -0.657106      1.307111      0.096618
  H      -1.822701      0.055695     -1.268310
  C       0.587159      1.231478      0.976683
  H      -0.616247      2.185149     -0.551704
  H      -1.521649      1.424268      0.753897
  C      -0.629471     -1.271563     -0.016370
  H      -0.314793     -0.079076      2.428273
  H       1.452107     -0.063064      2.466087
  C      -0.886841      0.046524     -0.717344
  H      -1.490689     -1.464413      0.628106
  H      -0.574619     -2.081381     -0.746363
  H       1.482425      1.253898      0.355961
  H       0.595323      2.107450      1.629770
  H       1.506122     -1.208854      0.256017
  H       0.632734     -2.174834      1.455428
  Br     -4.629654     -0.053824      1.982876
  O      -0.098998      0.227301     -2.101428
  C       1.205805      0.005851     -2.463595
  H       1.160980      0.112338     -3.555846
  H       1.922715      0.747023     -2.098333
  H       1.504934     -1.011574     -2.189833
23
Coordinates from ORCA-job optts+numfreq_initial_path E   0.000000000000
  C       0.604693     -1.255520      0.861582
  C       0.574862     -0.049189      1.790117
  C      -0.640234      1.303104      0.062856
  H      -1.839891      0.056339     -1.255074
  C       0.591813      1.226816      0.959864
  H      -0.586752      2.176866     -0.590277
  H      -1.513265      1.426580      0.708104
  C      -0.624818     -1.271277     -0.042332
  H      -0.330111     -0.077489      2.402955
  H       1.436458     -0.069549      2.460605
  C      -0.869778      0.044786     -0.760892
  H      -1.495534     -1.457770      0.591308
  H      -0.565783     -2.083611     -0.769500
  H       1.497961      1.247184      0.354854
  H       0.593726      2.103255      1.612411
  H       1.511282     -1.222037      0.257194
  H       0.615629     -2.179075      1.445371
  Br     -4.657028     -0.047768      2.147596
  O      -0.134839      0.188670     -2.138673
  C       1.204258      0.019325     -2.425622
  H       1.222830      0.101993     -3.519153
  H       1.866913      0.795890     -2.033672
  H       1.537609     -0.977521     -2.119623
23
Coordinates from ORCA-job optts+numfreq_initial_path E   0.000000000000
  C       0.599787     -1.260796      0.848433
  C       0.565909     -0.052300      1.774320
  C      -0.624114      1.299283      0.029079
  H      -1.852927      0.056987     -1.246449
  C       0.596321      1.222470      0.942164
  H      -0.558711      2.169302     -0.628051
  H      -1.505359      1.428872      0.662236
  C      -0.620102     -1.270864     -0.069042
  H      -0.346328     -0.075449      2.376432
  H       1.419685     -0.075480      2.454659
  C      -0.854902      0.043085     -0.804754
  H      -1.500259     -1.451401      0.553343
  H      -0.556128     -2.085671     -0.793347
  H       1.513081      1.240687      0.352909
  H       0.591998      2.099418      1.594047
  H       1.516186     -1.234820      0.258299
  H       0.598122     -2.182859      1.434691
  Br     -4.686695     -0.043299      2.318382
  O      -0.160124      0.152691     -2.167155
  C       1.204417      0.030885     -2.388689
  H       1.281979      0.094385     -3.479171
  H       1.811002      0.839273     -1.972044
  H       1.567160     -0.944398     -2.050292
23
Coordinates from ORCA-job optts+numfreq_initial_path E   0.000000000000
  C       0.594987     -1.265663      0.834845
  C       0.556511     -0.054816      1.757846
  C      -0.608681      1.295717     -0.004567
  H      -1.863268      0.057398     -1.241044
  C       0.600938      1.218452      0.923517
  H      -0.532039      2.162590     -0.664833
  H      -1.497703      1.431288      0.616652
  C      -0.615104     -1.270438     -0.096248
  H      -0.363020     -0.072892      2.348908
  H       1.402219     -0.080630      2.448096
  C      -0.842111      0.041369     -0.848492
  H      -1.504443     -1.445668      0.514646
  H      -0.545532     -2.087457     -0.817878
  H       1.527578      1.234450      0.349325
  H       0.590590      2.095969      1.574578
  H       1.520931     -1.247114      0.259112
  H       0.580728     -2.186104      1.423486
  Br     -4.721367     -0.040717      2.494286
  O      -0.176920      0.121020     -2.187991
  C       1.206676      0.040645     -2.352595
  H       1.338893      0.089541     -3.436704
  H       1.756821      0.876163     -1.912447
  H       1.593314     -0.913102     -1.982500
23
Coordinates from ORCA-job optts+numfreq_initial_path E   0.000000000000
  C       0.590618     -1.270088      0.820940
  C       0.547042     -0.056696      1.740802
  C      -0.593703      1.292397     -0.038043
  H      -1.871872      0.057469     -1.237348
  C       0.605854      1.214779      0.904046
  H      -0.506328      2.156580     -0.700785
  H      -1.489987      1.433945      0.571484
  C      -0.609580     -1.270040     -0.123721
  H      -0.379678     -0.069824      2.320689
  H       1.384575     -0.084862      2.440844
  C      -0.831039      0.039603     -0.892004
  H      -1.507695     -1.440756      0.475612
  H      -0.533939     -2.088909     -0.842983
  H       1.541393      1.228608      0.343744
  H       0.589770      2.092943      1.554099
  H       1.525662     -1.258847      0.259439
  H       0.563930     -2.188777      1.411869
  Br     -4.763321     -0.040101      2.674032
  O      -0.187544      0.094293     -2.202787
  C       1.210840      0.048937     -2.317071
  H       1.393653      0.087443     -3.392332
  H       1.705560      0.906154     -1.853763
  H       1.615789     -0.884248     -1.916761
23
Coordinates from ORCA-job optts+numfreq_initial_path E   0.000000000000
  C       0.586941     -1.274067      0.806823
  C       0.537874     -0.057967      1.723333
  C      -0.578920      1.289286     -0.071328
  H      -1.879178      0.057224     -1.234238
  C       0.611170      1.211473      0.884006
  H      -0.481049      2.150999     -0.736169
  H      -1.481965      1.436894      0.526718
  C      -0.603351     -1.269653     -0.151278
  H      -0.395806     -0.066326      2.292111
  H       1.367250     -0.088155      2.432909
  C      -0.821242      0.037794     -0.935372
  H      -1.509771     -1.436654      0.436529
  H      -0.521382     -2.089997     -0.868507
  H       1.554537      1.223327      0.336157
  H       0.589620      2.090369      1.532848
  H       1.530510     -1.269947      0.259119
  H       0.548094     -2.190897      1.399918
  Br     -4.813922     -0.041336      2.856354
  O      -0.194030      0.072327     -2.213132
  C       1.216474      0.056162     -2.281891
  H       1.445993      0.087818     -3.346534
  H       1.657653      0.929468     -1.795018
  H       1.634500     -0.858141     -1.853357
