23
Coordinates from ORCA-job optts+numfreq_im28
  C   0.58932426308811     -1.27421284985078      0.81445560112904
  C   0.54489264331025     -0.06632502553749      1.74178905703387
  C   -0.58726103711105      1.29233853552457     -0.03508069702771
  H   -1.87612019148374      0.06913180990223     -1.21911470552586
  C   0.60830318385151      1.20958829013376      0.91212954296471
  H   -0.50050346932414      2.16269664912099     -0.68800112476280
  H   -1.48923051215000      1.42497729213331      0.57004668157251
  C   -0.60531128515220     -1.26284883686102     -0.13823594914309
  H   -0.38459298237325     -0.08155222880292      2.31858153481464
  H   1.37921763024886     -0.10044262548622      2.44499549821375
  C   -0.81933455374510      0.04975531422099     -0.91406259157746
  H   -1.50985581162572     -1.42742916514982      0.45493310106478
  H   -0.53291382597304     -2.08267925457893     -0.85571407274991
  H   1.54532109487999      1.22578138005004      0.35268889537715
  H   0.59193641750157      2.08373938124594      1.56732525089802
  H   1.52772742902137     -1.26214474555146      0.25761123843525
  H   0.55694470518011     -2.19613048656360      1.40001004267641
  Br  -4.77552103784040     -0.04376408711921      2.64510536011396
  O   -0.19576079685529      0.10548483772205     -2.19474472592898
  C   1.21145471587796      0.05301165125408     -2.30813394903918
  H   1.39840032929767      0.09615231663039     -3.38230919117590
  H   1.70135940660166      0.90517892379555     -1.82994576247541
  H   1.62152368477486     -0.88030707623244     -1.91432903488780
