23
Coordinates from ORCA-job optts+numfreq_im18
  C   0.64802866962791     -1.21597389406687      0.93374737508099
  C   0.62109608992521     -0.02600316645725      1.88709903271017
  C   -0.74472351570192      1.28776534792486      0.25288563345789
  H   -1.67281543479185      0.05754521804315     -1.30418370013270
  C   0.53890362178523      1.26524326049004      1.08227941803913
  H   -0.78269647487587      2.19798547649528     -0.35016815948732
  H   -1.61475842300137      1.27939501966215      0.90755301509615
  C   -0.59357396165567     -1.22451416762128      0.04945792173764
  H   -0.24973800013759     -0.09685233485603      2.54641800433333
  H   1.51914685982498     -0.02746847866904      2.50709382314185
  C   -0.72734016031414      0.09994753469888     -0.72917478491225
  H   -1.48061803558804     -1.34515322420777      0.68570416877064
  H   -0.58887003809188     -2.07594881808914     -0.63231341795358
  H   1.38910866260219      1.31798344566309      0.40258380296046
  H   0.56774677838688      2.13594239016142      1.74139655984738
  H   1.52015979185608     -1.13685288055827      0.28379414397631
  H   0.71355302403218     -2.15087007253429      1.49770937706516
  Br  -4.43390998746469     -0.10790840259627      1.08149816202172
  O   0.36171863763535      0.52761500861499     -1.56045994688631
  C   1.07618385408297     -0.09666155344539     -2.60935102907977
  H   0.68394507686726      0.17721548748161     -3.59662063984208
  H   2.07243053262305      0.34511577978846     -2.52089941715260
  H   1.17702243237375     -1.18754697592234     -2.55604934279221
