23
Coordinates from ORCA-job optts+numfreq_im26
  C   0.60529397988487     -1.26245773233950      0.83902251297399
  C   0.56985152951207     -0.06110035515005      1.77533937294883
  C   -0.61308248727247      1.29574310913016      0.03160129750919
  H   -1.87206672056050      0.07184597856347     -1.18354925867362
  C   0.60175632090905      1.21948502605975      0.95199997067811
  H   -0.55859595974181      2.17693292781709     -0.60706197259725
  H   -1.50993217517911      1.39719543392714      0.65406082983262
  C   -0.60287254597329     -1.25249733211232     -0.09570765146594
  H   -0.34703581824423     -0.08826730390222      2.37372684206437
  H   1.41934798599530     -0.09119243395106      2.45964962729519
  C   -0.81827488986975      0.06253697817060     -0.86671557529595
  H   -1.50075796003818     -1.40888539524626      0.51332937616515
  H   -0.54989818596387     -2.07805880431648     -0.80623539880971
  H   1.52040585082406      1.24247091842379      0.36144208147592
  H   0.59871815505589      2.09119822647348      1.61017801975094
  H   1.52969357521994     -1.23601673757571      0.25882889806658
  H   0.59421157053711     -2.18835317269477      1.41907634323655
  Br  -4.69763863277746     -0.04658719408100      2.26056610169963
  O   -0.20018892398261      0.16332457575760     -2.15167514667681
  C   1.18986918896880      0.02422138321688     -2.37036373231794
  H   1.28124653129376      0.09277424288976     -3.45665116672097
  H   1.78801797731830      0.82411825322733     -1.92292220642279
  H   1.57193163408413     -0.94843059228768     -2.04793916471610
