23
Coordinates from ORCA-job optts+numfreq_im27
  C   0.59726137730573     -1.26855489133876      0.82673031097797
  C   0.55746905034298     -0.06407106249528      1.75868687643637
  C   -0.59946122560662      1.29403565038389     -0.00242002445817
  H   -1.87522854480628      0.07055850422997     -1.20001179677462
  C   0.60534162809633      1.21420152515386      0.93214301108571
  H   -0.52840126969370      2.16982279333174     -0.64818531380593
  H   -1.49888618289528      1.41182724747502      0.61145904369912
  C   -0.60420801608825     -1.25786539147954     -0.11704017053102
  H   -0.36576862556330     -0.08522770691873      2.34647343371212
  H   1.39937456099327     -0.09635953874121      2.45253042868730
  C   -0.81936034711519      0.05584029677900     -0.89038889028533
  H   -1.50520581348548     -1.41858545319311      0.48424795943934
  H   -0.54171102868132     -2.08062179151566     -0.83093102145966
  H   1.53365305605351      1.23393370710322      0.35759166659942
  H   0.59506760291918      2.08701631971635      1.58902128921119
  H   1.52877768035272     -1.24928930823771      0.25815837261526
  H   0.57537579091611     -2.19251921412661      1.40953150743408
  Br  -4.73540298795849     -0.04403930771179      2.45136183601767
  O   -0.20055056157418      0.13176556475489     -2.17440215850565
  C   1.20014031915137      0.03930943188344     -2.33898517923234
  H   1.33994785163209      0.09312322652544     -3.42068884636876
  H   1.74225130186653      0.86830711115434     -1.87538662826396
  H   1.59952438383826     -0.91260771273274     -1.97949570623011
