23
symmetry c1
C        0.719156000     -1.193736000      1.085779000
C        0.690684000      0.018452000      2.014183000
C       -0.683588000      1.252145000      0.322920000
H       -1.338350000      0.061587000     -1.370010000
C        0.549833000      1.312495000      1.216361000
H       -0.815250000      2.181165000     -0.235342000
H       -1.588361000      1.086963000      0.910806000
C       -0.514470000     -1.209830000      0.190506000
H       -0.154573000     -0.073489000      2.700730000
H        1.610563000      0.049321000      2.601895000
C       -0.515844000      0.077360000     -0.642507000
H       -1.430437000     -1.228331000      0.784512000
H       -0.527024000     -2.091208000     -0.455031000
H        1.417038000      1.436498000      0.567033000
H        0.486263000      2.171220000      1.887167000
H        1.594035000     -1.129273000      0.437032000
H        0.777897000     -2.117442000      1.664666000
Br      -4.063426000     -0.176039000     -0.528782000
O        0.726039000      0.247114000     -1.323277000
C        0.760491000     -0.101293000     -2.680325000
H        0.136388000      0.574632000     -3.278456000
H        1.803459000      0.004204000     -2.976929000
H        0.431687000     -1.132095000     -2.853481000
