16
Coordinates from ORCA-job N-methyl-maleamic-acid
  C   -1.06414590654418      0.10289377382877     -0.00688047614293
  C   -0.04921863528403      1.17591341949052      0.10082655966224
  C   1.28528062481863      1.09031109475028      0.05950696710563
  C   2.20950790418313     -0.06985967134847     -0.10262755259747
  O   1.73193249364611     -1.28240368111626     -0.24128330578720
  O   3.41120282792032      0.13791978671347     -0.10177503520396
  O   -0.79310063523321     -1.09744345957003     -0.17054143411411
  N   -2.32302609261503      0.53127504411889      0.08772648806699
  C   -3.47009069242550     -0.34196168649412      0.00873836683246
  H   -0.46527194871722      2.16668235090215      0.23171014436868
  H   1.85332481158509      2.00698844181196      0.15856900893214
  H   0.70285803209145     -1.31522352905922     -0.22526128140041
  H   -3.11762152653758     -1.36313042059082     -0.12195528208293
  H   -4.09519352460689     -0.06214998646738     -0.83900208557069
  H   -4.05511492046111     -0.27333432485186      0.92550737378959
  H   -2.51036481081998      1.51507884988211      0.21770254414196
