22
symmetry c1
C        0.338301027     -0.800900564      1.617476570
C        0.808424226      0.570251452      2.092776003
C        0.439866019      1.482484445     -0.212786029
H       -1.122769822      0.029137105     -0.576996450
C        0.140325929      1.668173676      1.270983473
H        1.512885419      1.557937280     -0.397020416
H       -0.059857233      2.249941036     -0.806193823
C        0.641555283     -0.993579117      0.134326902
H        0.566083442      0.697701188      3.149296807
H        1.892005754      0.640104066      1.978598087
C       -0.027743746      0.108497095     -0.694178667
H        0.277134667     -1.970908990     -0.189544425
H        1.718880595     -0.951742932     -0.041436231
H        0.492388072      2.649105392      1.594901020
H       -0.941284428      1.628818732      1.424759892
H        0.825882479     -1.588815765      2.194999373
H       -0.740707006     -0.890917051      1.771871731
C       -0.352163718     -1.004713602     -2.785037232
O        0.294316163      0.025550815     -2.078738936
H        0.033685809     -1.992940422     -2.511795889
H       -1.434776001     -0.991739213     -2.607735128
H       -0.156110202     -0.819560265     -3.839666346
