23
Coordinates from ORCA-job opt+numfreq
  C   1.87921414288183     -1.36955304154479      0.02832577984971
  C   2.75999101944281     -0.12585100199525     -0.04019004559000
  C   1.17812915198801      0.90767639464367     -1.67825154841978
  H   -0.13755957756781     -0.49415844691665     -2.64774906758520
  C   1.91179331013036      1.10232937919810     -0.35551233168410
  H   1.89564827892457      0.75854978094230     -2.49302474890284
  H   0.56654325236192      1.78412842737534     -1.91318125896150
  C   1.14491272527951     -1.56539331789134     -1.29328550474371
  H   3.28725676485272      0.01362143802209      0.90569670917139
  H   3.49831315079090     -0.26027265992492     -0.83540233165996
  C   0.32909805257250     -0.34727657919298     -1.67091995257327
  H   0.51248481493436     -2.45806962373715     -1.25683725606555
  H   1.86182650655080     -1.68407369890749     -2.11780484783613
  H   2.54442814596295      1.98938126811745     -0.42288948466542
  H   1.18508752134747      1.26360516670357      0.44650437815108
  H   2.48849578909623     -2.25185539244421      0.23444811047310
  H   1.15204501296141     -1.26246234258700      0.83939583390153
  Br  -1.17285946381519     -0.13296118458763     -0.43965968244492
  C   3.05415498808435     -1.60154087889156     -4.99245875084015
  O   2.59830579620229     -0.87997144568999     -3.99429806059731
  H   4.14828973393810     -1.88816427942898     -4.89813381662186
  H   2.51485843535610     -2.59129310484234     -5.13571571525542
  H   2.98122443119977     -1.09300798474228     -6.00385800085781
