23
Coordinates from ORCA-job optts+numfreq_TSOpt
  C   0.24705773814698     -0.82070746465347      1.75216471208236
  C   0.91075203090070      0.54468440457559      1.88092868330315
  C   -0.37670052615335      1.40278893520008     -0.09661158931522
  H   -1.32387767916732     -0.20744944911789     -1.31997656359880
  C   -0.04116909410127      1.62254655072852      1.37749223291253
  H   0.50906036889992      1.60206347928248     -0.70624681237613
  H   -1.15982552628556      2.09539034314214     -0.41793311260760
  C   -0.07161573622655     -1.12853097983114      0.28970739948032
  H   1.17084712156134      0.73463224985800      2.92430473778856
  H   1.82493653349965      0.56146358855348      1.28293040951029
  C   -0.78589753667992     -0.00704415659258     -0.41404808231618
  H   -0.65863236862905     -2.04905851101045      0.21330201891092
  H   0.86706919149867     -1.28706140850980     -0.24814474398847
  H   0.40588338941070      2.61226017440687      1.49054601589261
  H   -0.96004910812690      1.59725525353335      1.96806195823777
  H   0.90106695157587     -1.60488873431054      2.13976072814784
  H   -0.67572482269685     -0.83128982799974      2.33650189519657
  Br  -2.85979959903006     -0.09980066878850      0.70030862039978
  C   0.41120411286018     -0.95605530172192     -3.03692546363246
  O   0.63613128302180     -0.01613551587981     -2.10384537180717
  H   0.31846485324877     -1.98430103336229     -2.60930493100907
  H   -0.52569028647976     -0.77901790640284     -3.62371114983002
  H   1.23650870895200     -1.00174402109954     -3.77926159138154
