23
Coordinates from ORCA-job optts+numfreq_XTB-NEB-CI_im6
  C   0.06905692513799     -0.86653380926067      1.68681094616877
  C   0.95252702168527      0.37141062130752      1.70972561750453
  C   -0.40960241626030      1.41158204121029     -0.13410796083753
  H   -1.72773394677975     -0.05584909887785     -1.17123714195417
  C   0.12501606791682      1.57754324139893      1.28986614116902
  H   0.40247693069017      1.57572360737140     -0.84512654698396
  H   -1.17444769084022      2.16420666947946     -0.33823216065115
  C   -0.42379931677261     -1.15631329220834      0.26172446881883
  H   1.35776812042010      0.52679893944521      2.71173744537802
  H   1.78233979593223      0.23706655111190      1.01286878840700
  C   -0.85214053479715      0.03665357870930     -0.55534924712793
  H   -1.20664069227093     -1.92097609643460      0.30237583031200
  H   0.40562606660038     -1.56279532771652     -0.31432767846541
  H   0.73167505716544      2.48650940235460      1.32041823412317
  H   -0.70476790919691      1.70667769443482      1.98869781167908
  H   0.61834896632814     -1.74044548290510      2.04864108775632
  H   -0.78184956194998     -0.71278397488945      2.35492425306664
  Br  -3.15663803182650      0.29420116266258      1.05281380582917
  C   0.80934165330215     -0.90388293680305     -2.88316063094554
  O   0.16406013224519      0.07494693876030     -2.13326079425385
  H   1.89329071458263     -0.95858089373668     -2.65541462200259
  H   0.39028668881358     -1.90875606306223     -2.74402499941209
  H   0.73580595987424     -0.67640347235182     -3.96636264757832
