23
Coordinates from ORCA-job optts+numfreq_im3
  C   0.05440268481691     -0.85315229438474      1.74152249387899
  C   0.93588563998918      0.39172170336544      1.69675650191602
  C   -0.58425298439870      1.42686503335818     -0.00367744486663
  H   -1.82956600524855     -0.00122612009577     -1.03810006953312
  C   0.09413603254874      1.61627112611221      1.34894741377552
  H   0.16334412768734      1.34522966392902     -0.79805090391223
  H   -1.22984965006187      2.28000753624115     -0.23696960764858
  C   -0.61400167292740     -1.07494538878246      0.39009664787341
  H   1.42272506311906      0.53708026108325      2.66367559249575
  H   1.70723878650606      0.25804100523394      0.93410112909321
  C   -1.39745673220953      0.14809462704679     -0.04455037566269
  H   -1.27572882434253     -1.94703521054490      0.41918169710246
  H   0.14262935638524     -1.25304100710108     -0.38316598356445
  H   0.72178081667175      2.50927395350004      1.31435968073318
  H   -0.66864836551645      1.76459620447093      2.11731209314448
  H   0.64951243372804     -1.73196763140298      1.99879289289351
  H   -0.71710464154820     -0.72733151204562      2.50536876236202
  Br  -2.95460558777089      0.34446873684400      1.12384027890739
  C   1.07053692873533     -0.99698423230879     -3.14011918539970
  O   0.56415360377760     -0.17417203550603     -2.25353866471405
  H   2.17176058239165     -1.22442348243221     -2.98462286535814
  H   0.57095063370816     -2.01812073981559     -3.16543905024258
  H   1.00215777395905     -0.61925019676479     -4.20572103327377
