23
Coordinates from ORCA-job optts+numfreq_TSOpt_IRC_F
  C   0.26708015957960     -0.81842555886464      1.66731548004141
  C   0.93146298086071      0.53775600781790      1.84135991588175
  C   -0.22278732527478      1.42805620447132     -0.20257173532835
  H   -1.34728587470999     -0.19252713136361     -1.09761496700370
  C   -0.01982883980469      1.59246796649417      1.30019774116995
  H   0.62253553905472      1.87722998308821     -0.72786469375175
  H   -1.12534847100107      1.96782965787950     -0.49693850058117
  C   0.09563206580818     -1.16479076882668      0.18944936988736
  H   1.13710405742474      0.72321927834715      2.89724057315552
  H   1.87128681310439      0.56575742711447      1.28678406194605
  C   -0.31958979456463     -0.01012160673290     -0.75356313482268
  H   -0.64570119050832     -1.96450795950585      0.11004082103071
  H   1.04760583433562     -1.54517267732654     -0.18887218917769
  H   0.36290192354528      2.59860917053102      1.48569348806555
  H   -0.97919144392116      1.50059885527166      1.81406233054127
  H   0.85710601187451     -1.60763374394051      2.13991180700478
  H   -0.70990989393247     -0.79773468435701      2.15535519805379
  Br  -3.53247654126530     -0.15808754713580      0.90276012954806
  C   0.32405792825238     -0.94829217581264     -2.89606544072054
  O   0.54954425294786      0.01185158407008     -1.89303618950860
  H   0.27656246560838     -1.96634579757905     -2.49733053789279
  H   -0.60295682476956     -0.73949202421050     -3.44477960421266
  H   1.17538424533249     -0.86079847189717     -3.57063627905955
