23
Coordinates from ORCA-job optts+numfreq_im28
  C   0.00698377289781     -0.93517393743549      1.56531077768564
  C   0.77400041597427      0.35223157754528      1.85373625697918
  C   0.23473183134687      1.18349791595513     -0.44960176883092
  H   -1.58661659253055      0.03583390020938     -0.44450077401585
  C   0.19215359740841      1.50551556981809      1.04158703196165
  H   1.27437443774262      1.06195990509219     -0.75793571264669
  H   -0.20761253062130      2.00082535854450     -1.02484757770240
  C   0.04846726335084     -1.26392214805220      0.07401811962853
  H   0.71558420430121      0.58585784366810      2.91856222493576
  H   1.82507859884482      0.21588000177393      1.59017571896721
  C   -0.53889946094111     -0.10721448774804     -0.74438885442573
  H   -0.52463974902604     -2.17293438136859     -0.12487900537724
  H   1.08503256401725     -1.43182437348349     -0.22310056811387
  H   0.75599473758683      2.42107820875926      1.23359429145698
  H   -0.84165465999808      1.67981533775251      1.34989814029540
  H   0.43837864777437     -1.76199908539439      2.13397983361103
  H   -1.03103214017481     -0.81723043389787      1.88597350297030
  Br  -4.88007634517901      0.85083092618150      2.36551783861729
  C   0.51466721220195     -0.69171265798802     -2.86444160443633
  O   -0.66089006692741     -0.38272517156095     -2.13727929899633
  H   1.24153089063326      0.12535660950746     -2.84730245176871
  H   0.98527082527540     -1.61031541266585     -2.50418056972049
  H   0.17917254604238     -0.84363106521244     -3.88989555107440
