23
Coordinates from ORCA-job optts+numfreq_im22
  C   0.02324201536499     -0.90492175420257      1.60287954790031
  C   0.84890441588868      0.35720074488438      1.82632623833760
  C   0.03069740977879      1.27273980798454     -0.35663854753741
  H   -1.71407777395164      0.00649274938906     -0.64945846239262
  C   0.16182857073864      1.53142618920178      1.14191406123365
  H   1.02698342706259      1.26649928234431     -0.79899742342579
  H   -0.54412256451808      2.08489336705081     -0.81130808501393
  C   -0.09907887035304     -1.22717106359014      0.10604365363431
  H   0.95303774897900      0.55896915502902      2.89434718834514
  H   1.84420097195525      0.21883075874318      1.40104039280546
  C   -0.61986098886451     -0.06223868777113     -0.75672754330449
  H   -0.75858598494958     -2.09413567450591     -0.00221373336354
  H   0.89156741457350     -1.49445559290551     -0.26132618446516
  H   0.74657038631855      2.44432572447265      1.28709149564822
  H   -0.81928694410461      1.69342849189565      1.59274881639739
  H   0.50114164519622     -1.74963397451147      2.10827833161168
  H   -0.96256209818806     -0.77614529605357      2.05544301212089
  Br  -4.29463176286690      0.65949076902932      1.91175673203336
  C   0.61793891156063     -0.77834986119618     -2.85639306499527
  O   -0.50959564262391     -0.22117970994327     -2.18766714300197
  H   1.54425535300127     -0.19760285781699     -2.77396349802677
  H   0.80319225076341     -1.81087356909819     -2.56008160993292
  H   0.32824210923880     -0.77758899842978     -3.91309417460814
