23
Coordinates from ORCA-job optts+numfreq_XTB-NEB-CI_im10
  C   0.03584372931850     -0.92603203005313      1.55331084204453
  C   0.83324585215409      0.34799702100046      1.80813562079233
  C   0.14458568403648      1.23992942706375     -0.42904890769588
  H   -1.63865675451467      0.04210874360686     -0.46686482973082
  C   0.18190058858109      1.51256325435807      1.07159368170910
  H   1.16732320763507      1.19443001380064     -0.80809936065432
  H   -0.37732063122501      2.04969796174647     -0.94350235669702
  C   0.00235303487350     -1.24345257081269      0.06111310635358
  H   0.86815266644522      0.55748117259132      2.87839080928722
  H   1.85689830587733      0.21663472266403      1.44969322017081
  C   -0.58157572806253     -0.07563111750382     -0.74063132571957
  H   -0.61056968430669     -2.13008541708704     -0.11814405575450
  H   1.01984595091879     -1.44846609438389     -0.27674546757340
  H   0.73164622592318      2.43737867094493      1.25935864913506
  H   -0.83624952354753      1.64840910653994      1.44428735429669
  H   0.47953216721046     -1.76618127489771      2.09179366625984
  H   -0.98337230348841     -0.79256455899765      1.92387822415937
  Br  -4.66534190000100      0.71903290975721      2.16854923373704
  C   0.53532545158785     -0.73422778398197     -2.79826296556790
  O   -0.65263650357147     -0.33036665782529     -2.14353862509633
  H   1.36885198442349     -0.05535381703770     -2.60325991695455
  H   0.82227975706025     -1.75294996973253     -2.52161102450484
  H   0.29793842267203     -0.71035171176027     -3.86039557199642
