23
Coordinates from ORCA-job optts+numfreq_im9
  C   0.07280911285768     -0.87120690684450      1.69714849322693
  C   0.95281550658700      0.37199409306608      1.71065582809349
  C   -0.43470255650673      1.41615219941669     -0.10746386342202
  H   -1.68517538172197     -0.05599033299936     -1.21359602274677
  C   0.12402827086488      1.58396482193949      1.30293692610567
  H   0.37013151502554      1.53366446917320     -0.84288306823994
  H   -1.17557541737147      2.18903355887598     -0.32588344122367
  C   -0.44688027004265     -1.14844241320286      0.28549504578531
  H   1.36590718401615      0.52497068419936      2.70977471177282
  H   1.77831821899053      0.24045174305807      1.00717228251778
  C   -1.01452216690960      0.06700466040798     -0.38446530120180
  H   -1.20072099730504     -1.94159842740538      0.31105661916592
  H   0.37937098830742     -1.51031685376071     -0.33270405117759
  H   0.73225424186380      2.49031778875067      1.32981316540754
  H   -0.70233551493070      1.70796697471273      2.00667975863579
  H   0.62806207723207     -1.74332711360122      2.04871844733491
  H   -0.77474045500211     -0.71776103049115      2.36874381812174
  Br  -3.04919941943737      0.27503824808156      0.98251161887021
  C   0.82021163683061     -0.89525023633388     -2.91407366832019
  O   0.21636016500570      0.08238558353083     -2.21266315005567
  H   1.90883020372410     -0.98382394703825     -2.67588075658979
  H   0.37985102101574     -1.90296114930288     -2.74030784229102
  H   0.75490203690645     -0.71226641423247     -4.01078554976963
