23
Coordinates from ORCA-job optts+numfreq_XTB-NEB-CI_im1
  C   0.05634707148208     -0.86087442784748      1.74364334207915
  C   0.93858689429363      0.38331090537989      1.71330613800483
  C   -0.54255953911987      1.41139819678209     -0.02491238973410
  H   -1.73121274368730     -0.02590932635844     -1.10113971491858
  C   0.10665015551433      1.60612734871872      1.33832807021880
  H   0.21575454785189      1.33353010075187     -0.81065498527507
  H   -1.18861432709047      2.25870697208253     -0.27553407141380
  C   -0.57524167946223     -1.09331840710122      0.37759564513853
  H   1.40075267806608      0.53445108060810      2.69054806822486
  H   1.72964463825604      0.24501551540321      0.97099665244316
  C   -1.34452461865163      0.12706442450363     -0.09189438495390
  H   -1.24062012702501     -1.96318472052351      0.39756026270131
  H   0.19780985210035     -1.28491239006197     -0.37429387560762
  H   0.73479890855477      2.49849012730326      1.31149339315918
  H   -0.67383952687134      1.75935714553724      2.08890867200277
  H   0.64138357147498     -1.73792053352817      2.02672647201741
  H   -0.73700617875450     -0.72662849527485      2.48384369802614
  Br  -2.94217251891143      0.31912667452722      1.02644593934679
  C   0.98551285731823     -0.94740779048027     -3.09023333949357
  O   0.41934824914203     -0.05518713406293     -2.31584099107011
  H   2.08733747724831     -1.11424713753451     -2.87607278846142
  H   0.52169021214618     -1.98218562066165     -3.01999790859916
  H   0.94017414612489     -0.68480250816274     -4.18882190383562
