23
Coordinates from ORCA-job optts+numfreq_XTB-NEB-CI_im7
  C   0.06627526724508     -0.86620836395918      1.66855764794197
  C   0.95006281661717      0.36924142236155      1.71187672803521
  C   -0.36426904626701      1.40277665881655     -0.16705664150189
  H   -1.74793170173406     -0.04867812572754     -1.09939931179849
  C   0.12803552515932      1.56985018149739      1.27156791611297
  H   0.46413402820778      1.59122312849734     -0.84682849568096
  H   -1.13708023200902      2.14539564447395     -0.37690296433701
  C   -0.38513213358194     -1.16570049223674      0.22968735056983
  H   1.33386214960966      0.52697713248088      2.72144795914794
  H   1.79369230947216      0.23439848378596      1.03286079981995
  C   -0.76326107019240      0.01481644770303     -0.65944136663174
  H   -1.18039450389780     -1.91827994435134      0.26933034474346
  H   0.45670536688768     -1.59243562207762     -0.30694026700057
  H   0.72959398532200      2.48247276902407      1.31483702363648
  H   -0.71596444043653      1.69856925207432      1.95207633659345
  H   0.60580025854103     -1.74021458521052      2.04706069679780
  H   -0.79724181732860     -0.71159817578750      2.31981504963098
  Br  -3.27198232424567      0.32264449673459      1.13809695766682
  C   0.78517381437633     -0.90196307688800     -2.84967691734827
  O   0.06539552545909      0.05571702229692     -2.09671341709523
  H   1.86332138561729     -0.89741409568840     -2.61667557795929
  H   0.41401015867070     -1.92011519562472     -2.73240392798653
  H   0.70719467850773     -0.65147496219499     -3.92517592335687
