23
Coordinates from ORCA-job optts+numfreq_XTB-NEB-CI_im5
  C   0.07030930021295     -0.86852102766709      1.69393207431328
  C   0.95236631210849      0.37190229832063      1.71019070627834
  C   -0.42438208881293      1.41412467819028     -0.11970352118229
  H   -1.70994350969717     -0.05706222738402     -1.19665674637822
  C   0.12471309163750      1.58141089366616      1.29660670630596
  H   0.38348734973021      1.55406054765903     -0.84514053060763
  H   -1.17725337870615      2.17687814792916     -0.33103444224334
  C   -0.43837441491335     -1.15252910637647      0.27658333775808
  H   1.36259009736119      0.52645086813441      2.71029940803164
  H   1.77926994963566      0.23818338396865      1.00929488771268
  C   -0.93286826367534      0.05222630135313     -0.46666881356464
  H   -1.20751814710810     -1.93069509714908      0.31028567962989
  H   0.38879253964638     -1.53797573931414     -0.32199402779073
  H   0.73279320688635      2.48854938717456      1.32399072969547
  H   -0.70265459871456      1.70892740429796      1.99864839309636
  H   0.62278108378201     -1.74149952723803      2.05007191995482
  H   -0.77819438220659     -0.71432044787129      2.36452062025228
  Br  -3.10157414899031      0.28478258456299      1.01622470709559
  C   0.81847748548479     -0.89996934648748     -2.90135326091303
  O   0.19807925126185      0.07789378460927     -2.17429496523207
  H   1.90425362723698     -0.97434356890631     -2.66823052772713
  H   0.38606736119042     -1.90484320422971     -2.74489272191575
  H   0.74878227664969     -0.69363098724260     -3.99067961256957
