23
Coordinates from ORCA-job optts+numfreq_XTB-NEB-CI_im8
  C   0.06073711945895     -0.88068857254486      1.59468775982235
  C   0.93128264184450      0.35829117328869      1.73023213086835
  C   -0.15676269672183      1.36514238140355     -0.28479320827232
  H   -1.75982692205397      0.00230134053064     -0.78679344731822
  C   0.14910901183092      1.54706665108258      1.19787109038904
  H   0.75397338295523      1.53989794178466     -0.85729606163346
  H   -0.89138790019860      2.11433116793581     -0.58852206141642
  C   -0.21812408267166     -1.20014724101704      0.12108752296848
  H   1.20210554826448      0.52273692606677      2.77429247707070
  H   1.84534088984753      0.22887546682349      1.14780360671499
  C   -0.66574277938238     -0.01469169546810     -0.74802293130089
  H   -0.98770373635498     -1.97673017571731      0.08692646995822
  H   0.69532988840158     -1.60104551366243     -0.31395114134218
  H   0.71866972598624      2.47240524080334      1.31481941786886
  H   -0.77602454021615      1.65269252744255      1.76782364529133
  H   0.55300230323963     -1.74746388317526      2.04446747266205
  H   -0.87346095855433     -0.71865934346464      2.13705061118692
  Br  -3.74970355555956      0.44415361749084      1.47932438672353
  C   0.68478762191489     -0.85833549987081     -2.75786744298369
  O   -0.34358780887555     -0.09169628179620     -2.16420754661460
  H   1.70021499647372     -0.59471163854954     -2.44359215176329
  H   0.53170197217021     -1.93250747467297     -2.62636616869009
  H   0.59606987820113     -0.63121711471374     -3.82497443018968
