23
Coordinates from ORCA-job optts+numfreq_im24
  C   0.01667545701456     -0.91462637247271      1.59101623557008
  C   0.82490593995782      0.35511753140266      1.83785409028734
  C   0.10040416517790      1.24421156168044     -0.38891541721113
  H   -1.67683870530269      0.01808647135105     -0.57593840151604
  C   0.17081433535713      1.52321050079082      1.10974872379875
  H   1.11406346522129      1.19818667294683     -0.78659201319833
  H   -0.43161252590814      2.06116082277190     -0.88593446604426
  C   -0.05003291261886     -1.23924069799631      0.09411160930380
  H   0.87530033147236      0.56711711673231      2.90776928722565
  H   1.84116779087448      0.21680677500835      1.46487347479780
  C   -0.59513530531715     -0.07636000489049     -0.75366888177214
  H   -0.68199211064044     -2.12182919966973     -0.04528324416572
  H   0.95712991876801     -1.47329298995291     -0.24982805498583
  H   0.74912541192111      2.43677834323712      1.27196053858783
  H   -0.82986513564372      1.68960596177133      1.51369550326999
  H   0.48014494572697     -1.75372146934660      2.11754454823319
  H   -0.98780279599660     -0.78914779863583      2.00080465356206
  Br  -4.48677177069260      0.72321902447299      2.06195252664945
  C   0.58447856542627     -0.74968322259902     -2.86066643987236
  O   -0.57024560664061     -0.28069275093776     -2.17458459606311
  H   1.45005533742478     -0.08097404881147     -2.80272437367705
  H   0.87165835814651     -1.75199793385217     -2.53902369405806
  H   0.27437284627161     -0.80193429300080     -3.90817160872190
