23
Coordinates from ORCA-job optts+numfreq_im2
  C   0.05140491732988     -0.84874002850948      1.74663593747559
  C   0.93271973126857      0.39578329372065      1.69367714237267
  C   -0.60803685240624      1.43019222318743      0.01351740829995
  H   -1.87650607499592      0.01055858333072     -0.99949639441648
  C   0.08870063621814      1.62157840310680      1.35662449648592
  H   0.12951726615056      1.32486557636472     -0.78799648287816
  H   -1.24222224486949      2.29163524607700     -0.21988103412339
  C   -0.63919254531942     -1.06191452369675      0.40489764027902
  H   1.43312446151948      0.53929773580251      2.65378705056747
  H   1.69306739925235      0.26184432368817      0.91996397421119
  C   -1.43365352457309      0.15931653471420     -0.01109581582929
  H   -1.29081986662848     -1.94132852026307      0.43672218753982
  H   0.10405687608735     -1.21797022269024     -0.38727464324831
  H   0.71828931898009      2.51261063068625      1.31104403696494
  H   -0.66209535032220      1.77442439991740      2.13642093037242
  H   0.65169408636886     -1.72881012815908      1.98688234967519
  H   -0.70547265730254     -0.72906424599231      2.52673212778678
  Br  -2.97241774350883      0.36199476728653      1.17786380156369
  C   1.12026164394228     -1.02182686210478     -3.18136518934883
  O   0.63125221164369     -0.23196784858694     -2.25439014010679
  H   2.21946892340047     -1.26981975560742     -3.04593464956624
  H   0.60740029872281     -2.03395188759294     -3.24708989298772
  H   1.04945908904166     -0.59870769467937     -4.23024484108944
