23
Coordinates from ORCA-job optts+numfreq_im18
  C   0.03841434305332     -0.88710606066382      1.62566068916921
  C   0.89223418613639      0.36239312822964      1.79650305292433
  C   -0.11234127070770      1.32543298055154     -0.28889282354909
  H   -1.76388125772423     -0.01937223414335     -0.81238118066434
  C   0.14477224470674      1.54573814781215      1.20119946324136
  H   0.84081603362008      1.40359726843533     -0.81274588932660
  H   -0.76709564008837      2.11947418934605     -0.65445675428750
  C   -0.19734706570795     -1.20302917764104      0.13530440926037
  H   1.10220426233788      0.54531963669268      2.85237163149798
  H   1.83902397145060      0.22541824629463      1.27156821955537
  C   -0.66022747237152     -0.03746980942225     -0.75982449734456
  H   -0.91019848167937     -2.03230063899415      0.09040820908314
  H   0.75436802871069     -1.53722517505741     -0.28002031825757
  H   0.74071562861359      2.45804974979505      1.30858910297018
  H   -0.78965067005371      1.69970235658866      1.74378628534810
  H   0.54277297570268     -1.74230113925353      2.08767036497496
  H   -0.90589268238396     -0.75292129046730      2.16087832983702
  Br  -3.91764909289331      0.53145755635912      1.61391626755792
  C   0.67826793030151     -0.83539963511232     -2.84671668707317
  O   -0.34398643426317     -0.09146834106288     -2.19029864186691
  H   1.69895080790402     -0.45044493717556     -2.71718102076039
  H   0.65190139875875     -1.89640719033984     -2.60936909868663
  H   0.44382825657706     -0.73113763077137     -3.91596911360320
