23
Coordinates from ORCA-job optts+numfreq_XTB-NEB-CI_im9
  C   0.04830534455481     -0.90360203468048      1.56262160970922
  C   0.88863544594793      0.35021355533467      1.76371951387437
  C   0.01201474063754      1.30560193517648     -0.37650123622224
  H   -1.71156011090553      0.03604274424714     -0.57303939481252
  C   0.16650119209279      1.52753251380590      1.12483063870316
  H   0.99242464822230      1.36754143419800     -0.85109821620112
  H   -0.61782329420681      2.09377634428220     -0.79527431722496
  C   -0.09512101870633     -1.22302055332536      0.07552093998378
  H   1.04044088423445      0.53534363463626      2.82825112635912
  H   1.86498903450974      0.21913197116673      1.29214662199583
  C   -0.63042915602324     -0.04216188144128     -0.74430763149826
  H   -0.78463237253241     -2.06262494981409     -0.04521906121982
  H   0.88168088582327     -1.51924102843657     -0.30761703698633
  H   0.71759565894440      2.45610060594912      1.29109896801651
  H   -0.81711166054860      1.63635579217927      1.58783397637475
  H   0.50959021415539     -1.75824419105774      2.06316118186695
  H   -0.93665467590646     -0.74807248061642      2.00850516292938
  Br  -4.21938687590061      0.57922618530114      1.83008083275429
  C   0.59707272204992     -0.79403945945514     -2.75138346505888
  O   -0.56610454152176     -0.24226875415780     -2.16298764657238
  H   1.52250643518171     -0.30214816146730     -2.43964958806750
  H   0.67407795597998     -1.86851290485478     -2.55803752093720
  H   0.46298854391752     -0.64293031696997     -3.82265545776616
