23
Coordinates from ORCA-job optts+numfreq_im13
  C   0.05971112135576     -0.86876874000016      1.66216388061632
  C   0.93807799252326      0.36954313069625      1.74322735411407
  C   -0.31486842805411      1.38703197814700     -0.19131728506380
  H   -1.76807850302018     -0.04642564020587     -1.05163166748959
  C   0.12612249169918      1.56317494022933      1.26775116079739
  H   0.55294097215785      1.55925103668570     -0.82522871588712
  H   -1.06061818082846      2.14669904475046     -0.43019232139013
  C   -0.34196479189345     -1.16692220434772      0.19908449025628
  H   1.28544973641924      0.53132400318619      2.76563212339922
  H   1.80675298871399      0.23582748549478      1.09510785988211
  C   -0.70914141174357     -0.00363952037957     -0.74339098788325
  H   -1.11495624171107     -1.94333621633830      0.22931155104072
  H   0.53556445928040     -1.57239158497028     -0.30003738187390
  H   0.73125507807672      2.47565318689116      1.32329225377469
  H   -0.73463299974035      1.70465946520307      1.92656346939679
  H   0.59676324019280     -1.73858457032374      2.05878547505123
  H   -0.82051870431695     -0.72645996875642      2.29816821871631
  Br  -3.40237320273329      0.36099978840484      1.21451572798329
  C   0.74925632339093     -0.89686258576299     -2.85004797907870
  O   -0.02191861815764      0.05088572300589     -2.10042511977263
  H   1.83396299374540     -0.80410358480717     -2.66841239208248
  H   0.45180873258449     -1.92819903758513     -2.69153206481465
  H   0.62140495205906     -0.68935612921732     -3.93138764969219
