23
Coordinates from ORCA-job optts+numfreq_im14
  C   0.05477398804715     -0.87174977833099      1.65167107292008
  C   0.92923334630173      0.36806609661117      1.75627185940489
  C   -0.26752596256665      1.37384444906020     -0.21559613208808
  H   -1.77240565941346     -0.04212079727354     -0.99547887645111
  C   0.12909204752942      1.55841798844555      1.25346541481220
  H   0.62363855334195      1.53537197983558     -0.82061113621719
  H   -0.99758592220639      2.14024192419252     -0.48087196111429
  C   -0.30566881560041     -1.17541975582508      0.17871657814236
  H   1.24664162694096      0.53428506731179      2.78788685391404
  H   1.81658503433126      0.23366664568774      1.13453995018788
  C   -0.69390306350084     -0.01429618323078     -0.76047722906635
  H   -1.06923013385154     -1.96088282832452      0.19611040935947
  H   0.59112748704183     -1.57211940000396     -0.29452015549416
  H   0.73284441095940      2.47101803612808      1.32069313003817
  H   -0.74816419373225      1.70382782053357      1.88839118322486
  H   0.58458241513620     -1.73832978118536      2.06473086180253
  H   -0.84011487797937     -0.73179563414269      2.26753416373339
  Br  -3.52287580440722      0.39871534548760      1.30368457041884
  C   0.73063129496740     -0.88643648639612     -2.84345997374881
  O   -0.09844073003279      0.02680621599033     -2.12484180799935
  H   1.80776576462820     -0.72576738531189     -2.67484970031788
  H   0.49256966685737     -1.93120420773908     -2.67167366708954
  H   0.57642952720807     -0.69413933152013     -3.92131540837196
