23
Coordinates from ORCA-job optts+numfreq_im17
  C   0.04252059369220     -0.88303562912352      1.63137326308039
  C   0.90202295587870      0.36380830276206      1.78754933924808
  C   -0.14924228733506      1.33767071373888     -0.27143850414675
  H   -1.76973964485939     -0.02617709115168     -0.85589904082087
  C   0.14059804232991      1.54888486030075      1.21484269373619
  H   0.79109623924128      1.43802116424641     -0.81428970627055
  H   -0.82303814263942      2.12563364628259     -0.61337358233945
  C   -0.22254667702350     -1.19671573752230      0.14406108484894
  H   1.13848910966843      0.54236511955355      2.83861609858547
  H   1.83521332283632      0.22748603631987      1.23843563720565
  C   -0.66836348442795     -0.03195362093351     -0.75980279487533
  H   -0.94810715368102     -2.01538899566078      0.11492399240061
  H   0.71770152930314     -1.54758145277637     -0.28387563824714
  H   0.73878981413741      2.46113098877420      1.31233593141963
  H   -0.78066589386496      1.70095768419756      1.78026625313709
  H   0.55314799374985     -1.74084963625450      2.08205107130745
  H   -0.89035686432468     -0.74756353196915      2.18691444309796
  Br  -3.82465829888656      0.49964492003049      1.53895050636594
  C   0.69146175105623     -0.84934409185264     -2.84470495003334
  O   -0.29031646973515     -0.05892998310704     -2.18283129904975
  H   1.72972267201908     -0.51699610196434     -2.70481883245648
  H   0.61219320842298     -1.91041558269133     -2.62341443281047
  H   0.47407768444217     -0.72065198119920     -3.91587153338327
