23
Coordinates from ORCA-job optts+numfreq_im20
  C   0.03042909145260     -0.89564865702503      1.61448000293643
  C   0.87144304633594      0.35962854338940      1.81256602195330
  C   -0.04020984889505      1.29986607936540     -0.32321726823167
  H   -1.74356875863648     -0.00612003397585     -0.72881947511019
  C   0.15341998006429      1.53893825960367      1.17243527019703
  H   0.93584932983429      1.33503714327085     -0.80789735817669
  H   -0.65612790520114      2.10427319424164     -0.73389068219508
  C   -0.14821345202917     -1.21513456169160      0.11974846397079
  H   1.02871880537373      0.55172766953603      2.87585256602003
  H   1.84356143079263      0.22168578090818      1.33658823922889
  C   -0.64154170207644     -0.04926628557103     -0.75887995353156
  H   -0.83462920692315     -2.06435152414704      0.04311509193434
  H   0.82424123377133     -1.51592064593701     -0.27130016517375
  H   0.74402813588955      2.45147483272542      1.29926942060681
  H   -0.80553275820038      1.69672892714641      1.66933466006355
  H   0.52200403994521     -1.74572678189708      2.09832839144574
  H   -0.93542308824034     -0.76392475594148      2.10905485063906
  Br  -4.10476095741872      0.59513165710552      1.76250537980526
  C   0.64943835144343     -0.80693304739897     -2.85146266278427
  O   -0.43531763889397     -0.15737404884348     -2.19414454687144
  H   1.62781506346523     -0.32125160202935     -2.74457701634265
  H   0.72931977104212     -1.85934829215640     -2.58352862933476
  H   0.38505703710451     -0.75349185067822     -3.91556060104918
