23
Coordinates from ORCA-job optts+numfreq_XTB-NEB-CI_initial_path E   0.000000000000
  C       0.045195     -0.839736      1.755923
  C       0.925976      0.403968      1.687355
  C      -0.655879      1.437391      0.049214
  H      -1.971884      0.035591     -0.919955
  C       0.077842      1.632166      1.371907
  H       0.061645      1.288126     -0.765532
  H      -1.267408      2.313854     -0.185836
  C      -0.689145     -1.035598      0.434330
  H       1.453217      0.543504      2.633245
  H       1.664310      0.269478      0.892162
  C      -1.505005      0.182507      0.056761
  H      -1.321534     -1.928305      0.470760
  H       0.027776     -1.154195     -0.390199
  H       0.710553      2.519154      1.304372
  H      -0.648798      1.793639      2.173943
  H       0.654503     -1.722023      1.962045
  H      -0.681926     -0.732647      2.567035
  Br     -3.006677      0.397006      1.288354
  C       1.220258     -1.071521     -3.264783
  O       0.764309     -0.350032     -2.266577
  H       2.314268     -1.358472     -3.170275
  H       0.680829     -2.061112     -3.408180
  H       1.147573     -0.562744     -4.276070
23
Coordinates from ORCA-job optts+numfreq_XTB-NEB-CI_initial_path E   0.000000000000
  C       0.063278     -0.849399      1.730355
  C       0.944724      0.393871      1.678724
  C      -0.619317      1.433474      0.018964
  H      -1.990198      0.029507     -0.929002
  C       0.102258      1.621580      1.348980
  H       0.128314      1.312195     -0.770453
  H      -1.222467      2.311743     -0.228879
  C      -0.658381     -1.046830      0.402732
  H       1.456785      0.531607      2.633265
  H       1.701423      0.262407      0.900906
  C      -1.446022      0.173356      0.002125
  H      -1.281631     -1.945901      0.423307
  H       0.086553     -1.175071     -0.391745
  H       0.737616      2.508011      1.297169
  H      -0.639909      1.779318      2.136751
  H       0.669451     -1.730870      1.949758
  H      -0.679662     -0.741548      2.526210
  Br     -3.245366      0.400668      1.377940
  C       1.189249     -1.053984     -3.207011
  O       0.598764     -0.278040     -2.321546
  H       2.282029     -1.279266     -3.032213
  H       0.672213     -2.055651     -3.305088
  H       1.150295     -0.601178     -4.241249
23
Coordinates from ORCA-job optts+numfreq_XTB-NEB-CI_initial_path E   0.000000000000
  C       0.079435     -0.856986      1.709672
  C       0.961453      0.386038      1.677882
  C      -0.569824      1.427189     -0.015199
  H      -2.009136      0.019344     -0.933769
  C       0.125111      1.612546      1.329964
  H       0.214224      1.333947     -0.771136
  H      -1.171053      2.302694     -0.275117
  C      -0.621206     -1.056004      0.370972
  H       1.453447      0.523089      2.643059
  H       1.740006      0.257468      0.921777
  C      -1.376834      0.163929     -0.065211
  H      -1.238266     -1.958979      0.375398
  H       0.156420     -1.196012     -0.386849
  H       0.761203      2.499721      1.298609
  H      -0.637043      1.766028      2.098645
  H       0.681014     -1.737367      1.946461
  H      -0.683288     -0.748275      2.485765
  Br     -3.473294      0.401224      1.447629
  C       1.150010     -1.029049     -3.146352
  O       0.407070     -0.237664     -2.383964
  H       2.240398     -1.191227     -2.920319
  H       0.666589     -2.047290     -3.206709
  H       1.143566     -0.634361     -4.201209
23
Coordinates from ORCA-job optts+numfreq_XTB-NEB-CI_initial_path E   0.000000000000
  C       0.086306     -0.863999      1.699825
  C       0.965622      0.381104      1.693910
  C      -0.497872      1.413400     -0.061689
  H      -2.012730      0.006849     -0.923763
  C       0.141380      1.604908      1.310201
  H       0.327854      1.333570     -0.773046
  H      -1.094819      2.283304     -0.347008
  C      -0.568731     -1.072584      0.339384
  H       1.418952      0.524101      2.676926
  H       1.776615      0.252049      0.972952
  C      -1.291210      0.148286     -0.131810
  H      -1.182054     -1.977308      0.323405
  H       0.248263     -1.223709     -0.371498
  H       0.775070      2.494499      1.303445
  H      -0.652304      1.757887      2.045854
  H       0.680162     -1.741606      1.965236
  H      -0.707206     -0.753161      2.443423
  Br     -3.678421      0.419768      1.520538
  C       1.093549     -0.992280     -3.103680
  O       0.226812     -0.229408     -2.426918
  H       2.186739     -1.079002     -2.863876
  H       0.672994     -2.037303     -3.118972
  H       1.085029     -0.649365     -4.172838
23
Coordinates from ORCA-job optts+numfreq_XTB-NEB-CI_initial_path E   0.000000000000
  C       0.080614     -0.871346      1.698947
  C       0.952543      0.378797      1.723732
  C      -0.413471      1.394751     -0.114489
  H      -1.995221     -0.000654     -0.895571
  C       0.147578      1.598332      1.288966
  H       0.453923      1.311498     -0.773736
  H      -1.000113      2.257408     -0.438699
  C      -0.501007     -1.100664      0.308862
  H       1.349081      0.534495      2.728964
  H       1.802748      0.245762      1.050195
  C      -1.191905      0.123974     -0.188060
  H      -1.113734     -2.004271      0.269448
  H       0.356527     -1.258508     -0.349476
  H       0.775953      2.491557      1.306083
  H      -0.685066      1.755193      1.978859
  H       0.663049     -1.744101      2.002823
  H      -0.751600     -0.757397      2.397931
  Br     -3.841033      0.465087      1.610829
  C       1.028057     -0.954870     -3.090146
  O       0.088291     -0.242083     -2.437500
  H       2.123934     -0.943395     -2.862885
  H       0.695316     -2.026751     -3.049058
  H       0.975535     -0.652815     -4.166020
23
Coordinates from ORCA-job optts+numfreq_XTB-NEB-CI_initial_path E   0.000000000000
  C       0.072686     -0.879115      1.694020
  C       0.935809      0.376129      1.752917
  C      -0.323566      1.372916     -0.167880
  H      -1.981215     -0.004120     -0.847815
  C       0.153894      1.589905      1.263401
  H       0.580659      1.282037     -0.774797
  H      -0.896685      2.228606     -0.530969
  C      -0.428612     -1.128248      0.276438
  H       1.270837      0.544577      2.778164
  H       1.824591      0.239783      1.131810
  C      -1.087158      0.095976     -0.258123
  H      -1.039354     -2.031145      0.212802
  H       0.467402     -1.291175     -0.326543
  H       0.776146      2.486593      1.305494
  H      -0.717084      1.750398      1.902891
  H       0.640786     -1.746435      2.038029
  H      -0.798067     -0.762572      2.343359
  Br     -3.995454      0.513267      1.700712
  C       0.958362     -0.915065     -3.071380
  O      -0.046450     -0.259984     -2.433827
  H       2.048187     -0.792039     -2.864638
  H       0.725695     -2.005450     -2.971073
  H       0.858591     -0.664839     -4.152991
23
Coordinates from ORCA-job optts+numfreq_XTB-NEB-CI_initial_path E   0.000000000000
  C       0.061968     -0.887063      1.684511
  C       0.914436      0.373335      1.780340
  C      -0.230165      1.348089     -0.220831
  H      -1.959009     -0.000990     -0.777880
  C       0.158977      1.579509      1.233740
  H       0.706684      1.248160     -0.774943
  H      -0.786270      2.197284     -0.622834
  C      -0.351159     -1.155625      0.242517
  H       1.183985      0.554562      2.822567
  H       1.840140      0.234658      1.216135
  C      -0.977681      0.063150     -0.342478
  H      -0.959453     -2.057743      0.154499
  H       0.580399     -1.322898     -0.303056
  H       0.773990      2.479659      1.301998
  H      -0.749117      1.742834      1.818218
  H       0.612721     -1.748068      2.070365
  H      -0.846385     -0.768328      2.279235
  Br     -4.147703      0.565591      1.798282
  C       0.886437     -0.875461     -3.050015
  O      -0.170913     -0.281348     -2.416223
  H       1.957263     -0.631685     -2.870657
  H       0.763809     -1.972592     -2.889575
  H       0.737046     -0.685031     -4.133914
23
Coordinates from ORCA-job optts+numfreq_XTB-NEB-CI_initial_path E   0.000000000000
  C       0.048759     -0.895326      1.668848
  C       0.887968      0.370183      1.803760
  C      -0.135337      1.319451     -0.272623
  H      -1.916451      0.010444     -0.684571
  C       0.162591      1.567013      1.199582
  H       0.830608      1.211527     -0.772710
  H      -0.669332      2.163695     -0.713131
  C      -0.269712     -1.181852      0.207187
  H       1.089338      0.563861      2.859031
  H       1.847896      0.230585      1.300207
  C      -0.868765      0.026361     -0.435257
  H      -0.873971     -2.083972      0.095221
  H       0.693287     -1.351471     -0.280727
  H       0.768980      2.470604      1.295170
  H      -0.780372      1.731837      1.725152
  H       0.578852     -1.749365      2.096986
  H      -0.895055     -0.774980      2.204773
  Br     -4.301669      0.621760      1.905250
  C       0.813004     -0.837037     -3.024862
  O      -0.284879     -0.304655     -2.386371
  H       1.848051     -0.466895     -2.878364
  H       0.810179     -1.926463     -2.805866
  H       0.616030     -0.715305     -4.106687
23
Coordinates from ORCA-job optts+numfreq_XTB-NEB-CI_initial_path E   0.000000000000
  C       0.034376     -0.904245      1.647875
  C       0.857317      0.366880      1.823595
  C      -0.038222      1.286410     -0.323476
  H      -1.846677      0.024774     -0.585906
  C       0.165734      1.552818      1.161159
  H       0.953963      1.171066     -0.766614
  H      -0.545029      2.125985     -0.803558
  C      -0.185072     -1.206435      0.171541
  H       0.987930      0.572749      2.887629
  H       1.848349      0.227351      1.384429
  C      -0.768432     -0.011211     -0.523502
  H      -0.782519     -2.109964      0.035346
  H       0.804770     -1.374723     -0.260201
  H       0.761876      2.459883      1.284591
  H      -0.808768      1.718882      1.625181
  H       0.540861     -1.750660      2.117685
  H      -0.941522     -0.783298      2.122747
  Br     -4.460747      0.681380      2.019716
  C       0.737348     -0.799386     -2.994859
  O      -0.393371     -0.329913     -2.346412
  H       1.717493     -0.301171     -2.885439
  H       0.862556     -1.864642     -2.722014
  H       0.497785     -0.752534     -4.069511
23
Coordinates from ORCA-job optts+numfreq_XTB-NEB-CI_initial_path E   0.000000000000
  C       0.020364     -0.914108      1.622550
  C       0.823504      0.363567      1.839813
  C       0.062244      1.249590     -0.372848
  H      -1.756050      0.035504     -0.504741
  C       0.170344      1.537486      1.118683
  H       1.077376      1.126406     -0.756782
  H      -0.414310      2.082692     -0.893624
  C      -0.098629     -1.229354      0.137020
  H       0.881302      0.581449      2.907866
  H       1.841906      0.224819      1.468378
  C      -0.677850     -0.047483     -0.602257
  H      -0.685965     -2.135643     -0.024187
  H       0.913447     -1.392753     -0.241327
  H       0.754622      2.448096      1.269284
  H      -0.831392      1.705557      1.520205
  H       0.500581     -1.752569      2.132269
  H      -0.983397     -0.793870      2.036090
  Br     -4.626500      0.744367      2.141477
  C       0.659496     -0.761891     -2.958034
  O      -0.496628     -0.357181     -2.292358
  H       1.562711     -0.136498     -2.887590
  H       0.918563     -1.784862     -2.639712
  H       0.384260     -0.793322     -4.020176
23
Coordinates from ORCA-job optts+numfreq_XTB-NEB-CI_initial_path E   0.000000000000
  C       0.008153     -0.924886      1.593587
  C       0.787850      0.360392      1.851875
  C       0.165405      1.209710     -0.420183
  H      -1.657179      0.038852     -0.453221
  C       0.178461      1.521194      1.072065
  H       1.198885      1.078181     -0.747589
  H      -0.280733      2.033662     -0.980970
  C      -0.011922     -1.250579      0.104496
  H       0.771550      0.590202      2.918856
  H       1.829239      0.223173      1.550584
  C      -0.594793     -0.082522     -0.673986
  H      -0.585430     -2.160917     -0.082586
  H       1.018240     -1.407544     -0.223436
  H       0.749698      2.435354      1.248101
  H      -0.845860      1.692428      1.411576
  H       0.459830     -1.755183      2.141005
  H      -1.019174     -0.806582      1.946437
  Br     -4.802131      0.810973      2.272276
  C       0.582477     -0.723783     -2.912888
  O      -0.590419     -0.385198     -2.220036
  H       1.386214      0.021927     -2.877621
  H       0.973909     -1.687225     -2.561151
  H       0.277730     -0.831627     -3.957191
23
Coordinates from ORCA-job optts+numfreq_XTB-NEB-CI_initial_path E   0.000000000000
  C      -0.001301     -0.936561      1.560746
  C       0.751152      0.357384      1.859004
  C       0.267832      1.167193     -0.465782
  H      -1.559514      0.035868     -0.423303
  C       0.191269      1.503612      1.021066
  H       1.313810      1.028079     -0.747330
  H      -0.149609      1.980967     -1.062724
  C       0.074717     -1.269763      0.073171
  H       0.659544      0.599073      2.919589
  H       1.810787      0.222907      1.629439
  C      -0.519731     -0.117755     -0.743880
  H      -0.480395     -2.185722     -0.140625
  H       1.119509     -1.420559     -0.206599
  H       0.748869      2.421170      1.220355
  H      -0.851383      1.678783      1.299448
  H       0.419562     -1.758255      2.144098
  H      -1.048409     -0.821282      1.853052
  Br     -4.994717      0.882690      2.417150
  C       0.512301     -0.683696     -2.859958
  O      -0.667398     -0.411477     -2.128931
  H       1.201933      0.164806     -2.848865
  H       1.022660     -1.576752     -2.488273
  H       0.178512     -0.860711     -3.880848
