23
Coordinates from ORCA-job optts+numfreq_XTB-NEB-CI_im2
  C   0.06319941116855     -0.86912273749422      1.72368391077209
  C   0.94515022717213      0.37528960643512      1.71436684511930
  C   -0.48564814530641      1.40868805199059     -0.06841228176477
  H   -1.66831749305263     -0.04841773792163     -1.17610790315899
  C   0.11841253710600      1.59431566328474      1.31641794262443
  H   0.29856139262894      1.41440021033025     -0.83358290295196
  H   -1.17110194759892      2.22508763243431     -0.31316426630617
  C   -0.51258915571059     -1.12529902671304      0.33617077172718
  H   1.37594910365838      0.52999156362596      2.70547052514239
  H   1.75947811379324      0.23787758197687      0.99774361106907
  C   -1.23663395095502      0.09989762094638     -0.18802250866240
  H   -1.21611918895268     -1.96397416561183      0.35494230071313
  H   0.29165944441090     -1.39755511575764     -0.35520821133710
  H   0.73903212555608      2.49211253656898      1.31666635609647
  H   -0.68901402406018      1.73453448577169      2.03938879785034
  H   0.63196900245633     -1.74237676303762      2.04766455821659
  H   -0.76226088117609     -0.72008938353955      2.42361797065754
  Br  -2.92524752038128      0.28801063277466      0.95011194654395
  C   0.88444629290345     -0.90064396074852     -2.99254079850692
  O   0.29086636377765      0.03490686966258     -2.29162101770941
  H   1.98507257570178     -1.02091654428066     -2.75343582725680
  H   0.44441757089029     -1.93658967712078     -2.85182940480690
  H   0.83871814597009     -0.71012734357664     -4.10232041407107
