23
Coordinates from ORCA-job optts+numfreq_im15
  C   0.05041192747492     -0.87515257406242      1.64398539726911
  C   0.92040606760772      0.36666655360346      1.76761274008629
  C   -0.22653136992424      1.36170488857822     -0.23582882988507
  H   -1.77568800899966     -0.03737581801342     -0.94696823509089
  C   0.13262166692205      1.55480379397872      1.24073646857183
  H   0.68400594841357      1.50520854001750     -0.81774786279181
  H   -0.93774597471373      2.13559363172249     -0.52700637498273
  C   -0.27635598829718     -1.18258383386839      0.16432194041224
  H   1.21018650563301      0.53695674036841      2.80672696059995
  H   1.82415062158097      0.23160096688854      1.17048493900782
  C   -0.68321138849361     -0.02128560160442     -0.76011666186530
  H   -1.02742025405587     -1.97918033212168      0.16736560238371
  H   0.63745086639589     -1.56609283673492     -0.29077301762975
  H   0.73480403380025      2.46747296295002      1.31822824220816
  H   -0.75991674167110      1.70304478527612      1.85201587452791
  H   0.57370210080651     -1.73874029581228      2.07058097802883
  H   -0.85790563651931     -0.73691406266722      2.23980371691479
  Br  -3.62755762857842      0.43262954510799      1.38455148534705
  C   0.71646061135588     -0.87548009067290     -2.84181944558741
  O   -0.16676476674969      0.00096811006777     -2.15104681066396
  H   1.78327523560159     -0.65398565588113     -2.68328786409073
  H   0.53246618541428     -1.92819613846635     -2.65435703813306
  H   0.53915598699617     -0.70166327865410     -3.91746220463697
