  18
 
 C         -1.1385330875       -0.8957223788        0.2422657438
 C         -1.3510101351        0.5374340486       -0.2376993007
 C          1.1337525819        0.8994627172       -0.2501102545
 H          1.3857073155       -0.5510458557        1.3338608044
 C         -0.2121888560        1.4328983378        0.2425822141
 H          1.9464753647        1.5334601330        0.1110363932
 H          1.1560074900        0.9109765925       -1.3425842909
 C          0.2062568067       -1.4325104245       -0.2499928970
 H         -1.3901541359        0.5531310067       -1.3291133213
 H         -2.3030351872        0.9162162999        0.1376545735
 C          1.3147837872       -0.5229445167        0.2444569112
 H          0.2150204951       -1.4566660806       -1.3424717823
 H          0.3612302586       -2.4513385604        0.1117274947
 H         -0.2106922363        1.4675688898        1.3345160496
 H         -0.3524272775        2.4502574790       -0.1256011066
 H         -1.1615621455       -0.9222566342        1.3341826862
 H         -1.9391718794       -1.5387098578       -0.1262929255
 Br         3.0810341960       -1.2255437925       -0.3728567564
