23
Coordinates from ORCA-job optts+numfreq_TSOpt
  C   0.64398048737909     -1.17534831396050      1.05365139395303
  C   0.65638845270925      0.02011916548480      1.99690855053371
  C   -0.86896770984841      1.27315114217847      0.44997625739961
  H   -1.04722672331373      0.09460961181734     -1.44995029018739
  C   0.47571017899529      1.29521193071163      1.18377454972296
  H   -0.97074162166719      2.16028938139799     -0.17847356059276
  H   -1.65802822315897      1.29434475900234      1.20770211191738
  C   -0.69447546276277     -1.25523792041161      0.31189604694000
  H   -0.15155896668910     -0.07367342213490      2.72789320125809
  H   1.60620504828187      0.05594450490918      2.53405507641861
  C   -1.02361621329832      0.03418279383428     -0.38387577644037
  H   -1.46866156657382     -1.46676923875544      1.05543702609812
  H   -0.67968307695296     -2.07627390409407     -0.40889088199253
  H   1.26519434254769      1.35699977761121      0.43561479494213
  H   0.51225240178716      2.17845470692066      1.82500475123489
  H   1.43306268213221     -1.04926290919509      0.31191455701736
  H   0.80119769135114     -2.10897354208311      1.59825407155904
  Br  -3.39262462960637     -0.12849983496859     -0.48556303011286
  O   1.01297359877960      0.24444190824628     -1.46971741065896
  C   0.90747914684694     -0.08874661375592     -2.76354713162358
  H   0.23626733771507      0.59335587666109     -3.34881350866980
  H   1.89414449857597     -0.05547189354581     -3.27625382380710
  H   0.51072832677037     -1.12284796587019     -2.92699697490957
