23
Coordinates from ORCA-job optts+numfreq_reactant
  C   2.85351310580424     -1.18371790266079     -0.07068342727125
  C   2.96886721874484     -0.02092887428679      0.91022385444055
  C   1.28534269241663      1.26471123011437     -0.43025671460776
  H   1.93378576616495      0.24174891500845     -2.22824903428295
  C   2.68031606214668      1.29303681116969      0.19046451099942
  H   1.09297124347412      2.20319176932943     -0.95697128882007
  H   0.52613392687721      1.14247440478909      0.34875106974331
  C   1.46017063169601     -1.21814103031216     -0.69503374549432
  H   2.25289220927261     -0.15776140716227      1.72443370165888
  H   3.97341488425256      0.00376152105100      1.33584060039525
  C   1.21874081892698      0.10193831850100     -1.40149664684209
  H   0.70164904938012     -1.36997174398134      0.07954288340937
  H   1.39300612403052     -2.04372010037041     -1.40960449904967
  H   3.40844076455310      1.43361711124182     -0.61362342691312
  H   2.75825845019678      2.13466192450912      0.88134519810952
  H   3.58526092846094     -1.05361153834858     -0.87358738504467
  H   3.05494491703189     -2.13281427300101      0.43044115038159
  Br  -0.55277230703417      0.06496978505306     -2.24026545450797
  O   3.40546499983421      0.46055113462490     -3.46178835491516
  C   3.38409475397844     -0.20974050670536     -4.59467004591285
  H   2.44753933083764     -0.04732729655527     -5.21268192995559
  H   4.23452056749746      0.04666642025127     -5.29397888193499
  H   3.44761412942048     -1.33575214021909     -4.46820053660982
