23
Coordinates from ORCA-job optts+numfreq_initial_path E   0.000000000000
  C       0.526845     -1.167308      1.150969
  C       0.641718     -0.003594      2.130813
  C      -1.041071      1.280814      0.788197
  H      -0.391400      0.255765     -1.008167
  C       0.353550      1.309700      1.409694
  H      -1.233035      2.218722      0.260310
  H      -1.800788      1.159537      1.566851
  C      -0.866300     -1.202391      0.526155
  H      -0.074672     -0.139667      2.944795
  H       1.646045      0.021525      2.556934
  C      -1.107166      0.117009     -0.181838
  H      -1.625150     -1.353336      1.300570
  H      -0.933256     -2.028688     -0.187605
  H       1.082120      1.449537      0.605876
  H       0.431095      2.151975      2.099823
  H       1.258775     -1.037836      0.348132
  H       0.728244     -2.115900      1.653061
  Br     -2.878096      0.079393     -1.021791
  O       1.081541      0.472887     -2.240770
  C       1.056794     -0.191749     -3.376941
  H       0.121469     -0.020865     -3.994528
  H       1.908982      0.063166     -4.074630
  H       1.113754     -1.318693     -3.255911
23
Coordinates from ORCA-job optts+numfreq_initial_path E   0.000000000000
  C       0.536871     -1.168613      1.145410
  C       0.642525     -0.001377      2.121324
  C      -1.025090      1.281401      0.759189
  H      -0.449573      0.240927     -1.056603
  C       0.364652      1.308357      1.390852
  H      -1.209094      2.214865      0.221087
  H      -1.788783      1.170701      1.535344
  C      -0.851346     -1.209479      0.510503
  H      -0.082479     -0.132778      2.928515
  H       1.642436      0.024758      2.557755
  C      -1.105988      0.106527     -0.189743
  H      -1.612779     -1.361272      1.282012
  H      -0.912049     -2.036237     -0.202891
  H       1.099973      1.441222      0.592663
  H       0.436825      2.154739      2.076618
  H       1.274610     -1.040685      0.348254
  H       0.733001     -2.115703      1.652437
  Br     -2.934738      0.059927     -0.979205
  O       1.087187      0.453381     -2.174483
  C       1.048513     -0.180790     -3.328035
  H       0.126496      0.040752     -3.947279
  H       1.916117      0.059629     -4.008402
  H       1.062712     -1.310252     -3.235320
23
Coordinates from ORCA-job optts+numfreq_initial_path E   0.000000000000
  C       0.546775     -1.169809      1.139889
  C       0.643295      0.000890      2.111904
  C      -1.009212      1.281656      0.730128
  H      -0.510489      0.225715     -1.104797
  C       0.375562      1.307012      1.372199
  H      -1.185394      2.210650      0.182182
  H      -1.776715      1.181639      1.503857
  C      -0.836448     -1.216120      0.494776
  H      -0.090146     -0.125930      2.912278
  H       1.638733      0.028071      2.558492
  C      -1.102467      0.096614     -0.198782
  H      -1.600370     -1.369000      1.263469
  H      -0.890984     -2.043433     -0.218072
  H       1.117483      1.433029      0.579667
  H       0.442397      2.157425      2.053602
  H       1.290182     -1.043386      0.348361
  H       0.737683     -2.115377      1.651770
  Br     -2.989362      0.040664     -0.935938
  O       1.091842      0.432388     -2.108165
  C       1.039945     -0.170124     -3.279347
  H       0.133581      0.101850     -3.899509
  H       1.922453      0.055459     -3.942250
  H       1.011656     -1.299882     -3.215713
23
Coordinates from ORCA-job optts+numfreq_initial_path E   0.000000000000
  C       0.556554     -1.170920      1.134405
  C       0.644030      0.003201      2.102532
  C      -0.993413      1.281491      0.700882
  H      -0.573090      0.210116     -1.152272
  C       0.386297      1.305664      1.353704
  H      -1.161876      2.206047      0.143506
  H      -1.764563      1.192295      1.472239
  C      -0.821616     -1.222238      0.478868
  H      -0.097700     -0.119117      2.896042
  H       1.634933      0.031450      2.559148
  C      -1.096364      0.087311     -0.209682
  H      -1.587919     -1.376448      1.244831
  H      -0.870034     -2.050262     -0.233193
  H       1.134739      1.424969      0.566909
  H       0.447828      2.160035      2.030733
  H       1.305569     -1.046011      0.348508
  H       0.742276     -2.114944      1.651061
  Br     -3.042019      0.021616     -0.892071
  O       1.094189      0.409894     -2.041653
  C       1.030987     -0.159661     -3.230647
  H       0.142631      0.162291     -3.850994
  H       1.927863      0.050703     -3.875981
  H       0.960695     -1.287482     -3.196876
23
Coordinates from ORCA-job optts+numfreq_initial_path E   0.000000000000
  C       0.566211     -1.171966      1.128944
  C       0.644727      0.005550      2.093177
  C      -0.977670      1.280844      0.671335
  H      -0.636239      0.194102     -1.198330
  C       0.396883      1.304302      1.335313
  H      -1.138469      2.201034      0.104957
  H      -1.752307      1.202635      1.440347
  C      -0.806854     -1.227791      0.462696
  H      -0.105173     -0.112326      2.879753
  H       1.631022      0.034886      2.559723
  C      -1.087834      0.078594     -0.222983
  H      -1.575426     -1.383570      1.225998
  H      -0.849165     -2.056728     -0.248307
  H       1.151824      1.417023      0.554379
  H       0.453143      2.162569      2.007946
  H       1.320841     -1.048609      0.348736
  H       0.746767     -2.114420      1.650308
  Br     -3.092844      0.002777     -0.847674
  O       1.093388      0.386062     -1.975064
  C       1.021532     -0.149360     -3.181791
  H       0.153493      0.221995     -3.801461
  H       1.932251      0.045394     -3.809415
  H       0.909899     -1.272996     -3.178586
23
Coordinates from ORCA-job optts+numfreq_initial_path E   0.000000000000
  C       0.575748     -1.172958      1.123483
  C       0.645380      0.007936      2.083802
  C      -0.961963      1.279679      0.641410
  H      -0.698890      0.177665     -1.242293
  C       0.407346      1.302915      1.316960
  H      -1.115104      2.195598      0.066440
  H      -1.739940      1.212647      1.408070
  C      -0.792165     -1.232775      0.446203
  H      -0.112598     -0.105545      2.863352
  H       1.626981      0.038370      2.560213
  C      -1.077352      0.070381     -0.238956
  H      -1.562894     -1.390353      1.206898
  H      -0.828344     -2.062846     -0.263458
  H       1.168798      1.409151      0.542031
  H       0.458366      2.165021      1.985166
  H       1.336041     -1.051204      0.349055
  H       0.751145     -2.113813      1.649501
  Br     -3.142020     -0.015868     -0.802815
  O       1.089179      0.361171     -1.908674
  C       1.011471     -0.139211     -3.132723
  H       0.165954      0.280885     -3.750612
  H       1.935532      0.039563     -3.742424
  H       0.859332     -1.256407     -3.160630
23
Coordinates from ORCA-job optts+numfreq_initial_path E   0.000000000000
  C       0.585168     -1.173903      1.117987
  C       0.645982      0.010358      2.074362
  C      -0.946264      1.277981      0.611044
  H      -0.760236      0.160826     -1.283689
  C       0.417714      1.301483      1.298565
  H      -1.091708      2.189732      0.027855
  H      -1.727449      1.222342      1.375315
  C      -0.777540     -1.237208      0.429346
  H      -0.120004     -0.098756      2.846775
  H       1.622788      0.041897      2.560610
  C      -1.065564      0.062554     -0.257635
  H      -1.550322     -1.396811      1.187473
  H      -0.807531     -2.068640     -0.278697
  H       1.185705      1.401294      0.529793
  H       0.463527      2.167380      1.962308
  H       1.351193     -1.053800      0.349455
  H       0.755406     -2.113123      1.648623
  Br     -3.189772     -0.034350     -0.757532
  O       1.081781      0.335513     -1.842743
  C       1.000700     -0.129192     -3.083410
  H       0.179765      0.338894     -3.698117
  H       1.937627      0.033240     -3.674896
  H       0.809034     -1.237710     -3.142793
23
Coordinates from ORCA-job optts+numfreq_initial_path E   0.000000000000
  C       0.594481     -1.174804      1.112416
  C       0.646527      0.012815      2.064808
  C      -0.930536      1.275754      0.580183
  H      -0.819736      0.143654     -1.322289
  C       0.428022      1.299985      1.280038
  H      -1.068197      2.183429     -0.010901
  H      -1.714818      1.231759      1.342000
  C      -0.762959     -1.241135      0.412090
  H      -0.127422     -0.091941      2.829953
  H       1.618417      0.045466      2.560901
  C      -1.053170      0.054979     -0.278884
  H      -1.537703     -1.402986      1.167677
  H      -0.786678     -2.074141     -0.294074
  H       1.202578      1.393378      0.517571
  H       0.468661      2.169638      1.939273
  H       1.366314     -1.056389      0.349908
  H       0.759550     -2.112346      1.647657
  Br     -3.236359     -0.052713     -0.711822
  O       1.071735      0.309337     -1.777437
  C       0.989129     -0.119262     -3.033821
  H       0.194661      0.395957     -3.643654
  H       1.938469      0.026464     -3.606728
  H       0.759032     -1.216900     -3.124865
23
Coordinates from ORCA-job optts+numfreq_initial_path E   0.000000000000
  C       0.603683     -1.175659      1.106738
  C       0.647011      0.015304      2.055114
  C      -0.914771      1.273021      0.548847
  H      -0.876988      0.126300     -1.358046
  C       0.438287      1.298401      1.261330
  H      -1.044531      2.176702     -0.049849
  H      -1.702050      1.240927      1.308127
  C      -0.748422     -1.244597      0.394443
  H      -0.134857     -0.085097      2.812856
  H       1.613858      0.049067      2.561072
  C      -1.040816      0.047544     -0.302437
  H      -1.525047     -1.408918      1.147511
  H      -0.765773     -2.079361     -0.309615
  H       1.219411      1.385339      0.505289
  H       0.473795      2.171774      1.916017
  H       1.381379     -1.058949      0.350370
  H       0.763575     -2.111479      1.646582
  Br     -3.281974     -0.070968     -0.665766
  O       1.059740      0.282890     -1.712894
  C       0.976713     -0.109374     -2.984002
  H       0.210332      0.451854     -3.587070
  H       1.937986      0.019310     -3.537967
  H       0.709460     -1.194031     -3.106649
23
Coordinates from ORCA-job optts+numfreq_initial_path E   0.000000000000
  C       0.612773     -1.176469      1.100927
  C       0.647435      0.017816      2.045258
  C      -0.898958      1.269812      0.517072
  H      -0.931753      0.108950     -1.391068
  C       0.448529      1.296713      1.242408
  H      -1.020677      2.169563     -0.088991
  H      -1.689148      1.249880      1.273718
  C      -0.733931     -1.247642      0.376415
  H      -0.142310     -0.078226      2.795465
  H       1.609105      0.052688      2.561109
  C      -1.029037      0.040156     -0.327977
  H      -1.512363     -1.414650      1.126984
  H      -0.744811     -2.084308     -0.325347
  H       1.236183      1.377111      0.492874
  H       0.478955      2.173774      1.892508
  H       1.396357     -1.061454      0.350792
  H       0.767479     -2.110520      1.645377
  Br     -3.326799     -0.089126     -0.619435
  O       1.046458      0.256369     -1.649140
  C       0.963441     -0.099464     -2.933981
  H       0.226483      0.506331     -3.528333
  H       1.936123      0.011871     -3.468682
  H       0.660465     -1.169175     -3.087951
23
Coordinates from ORCA-job optts+numfreq_initial_path E   0.000000000000
  C       0.621755     -1.177238      1.094961
  C       0.647801      0.020343      2.035228
  C      -0.883084      1.266166      0.484897
  H      -0.983924      0.091796     -1.421573
  C       0.458770      1.294905      1.223245
  H      -0.996597      2.162027     -0.128331
  H      -1.676106      1.258652      1.238799
  C      -0.719484     -1.250321      0.358021
  H      -0.149775     -0.071332      2.777765
  H       1.604156      0.056319      2.561001
  C      -1.018237      0.032743     -0.355181
  H      -1.499661     -1.420223      1.106109
  H      -0.723781     -2.088988     -0.341297
  H       1.252878      1.368634      0.480262
  H       0.484170      2.175620      1.868721
  H       1.411217     -1.063883      0.351128
  H       0.771265     -2.109472      1.644025
  Br     -3.371009     -0.107200     -0.572883
  O       1.032416      0.229933     -1.586094
  C       0.949331     -0.089456     -2.883758
  H       0.242857      0.559147     -3.467535
  H       1.932849      0.004254     -3.398937
  H       0.612191     -1.142427     -3.068575
23
Coordinates from ORCA-job optts+numfreq_initial_path E   0.000000000000
  C       0.630639     -1.177974      1.088828
  C       0.648117      0.022879      2.025013
  C      -0.867131      1.262128      0.452360
  H      -1.033512      0.075004     -1.449833
  C       0.469037      1.292964      1.203826
  H      -0.972249      2.154107     -0.167876
  H      -1.662913      1.267282      1.203395
  C      -0.705073     -1.252691      0.339279
  H      -0.157247     -0.064415      2.759746
  H       1.599014      0.059947      2.560739
  C      -1.008674      0.025250     -0.383743
  H      -1.486942     -1.425678      1.084898
  H      -0.702671     -2.093407     -0.357499
  H       1.269485      1.359846      0.467398
  H       0.489470      2.177304      1.844637
  H       1.425938     -1.066216      0.351334
  H       0.774939     -2.108341      1.642514
  Br     -3.414791     -0.125210     -0.526138
  O       1.017951      0.203721     -1.523597
  C       0.934424     -0.079275     -2.833306
  H       0.259267      0.610103     -3.404874
  H       1.928162     -0.003428     -3.328771
  H       0.564760     -1.113899     -3.048329
23
Coordinates from ORCA-job optts+numfreq_initial_path E   0.000000000000
  C       0.639642     -1.182216      1.105973
  C       0.649168      0.028095      2.029894
  C      -0.846049      1.255511      0.431523
  H      -1.052679      0.048502     -1.453539
  C       0.481065      1.291518      1.196434
  H      -0.944980      2.142108     -0.197125
  H      -1.652333      1.262371      1.170920
  C      -0.686435     -1.264274      0.342387
  H      -0.164574     -0.051744      2.756077
  H       1.594305      0.069580      2.575251
  C      -0.976730      0.009236     -0.389843
  H      -1.480415     -1.426155      1.077286
  H      -0.678043     -2.110902     -0.346739
  H       1.290887      1.353087      0.469872
  H       0.495180      2.181407      1.829578
  H       1.444887     -1.080477      0.378018
  H       0.775032     -2.107225      1.670595
  Br     -3.534092     -0.128563     -0.542057
  O       1.007836      0.173372     -1.508469
  C       0.926557     -0.059681     -2.828841
  H       0.274766      0.672098     -3.371257
  H       1.919412     -0.003729     -3.324400
  H       0.517593     -1.071920     -3.071538
23
Coordinates from ORCA-job optts+numfreq_initial_path E   0.000000000000
  C       0.648527     -1.186209      1.122989
  C       0.650102      0.033439      2.034556
  C      -0.825204      1.248594      0.410688
  H      -1.072803      0.021808     -1.455845
  C       0.492842      1.290093      1.188947
  H      -0.918090      2.129802     -0.226154
  H      -1.641941      1.256891      1.138141
  C      -0.667875     -1.275609      0.345495
  H      -0.171841     -0.039083      2.752106
  H       1.589393      0.079425      2.589428
  C      -0.942992     -0.006542     -0.397153
  H      -1.473866     -1.426368      1.069236
  H      -0.653474     -2.128050     -0.335950
  H       1.311814      1.346414      0.472233
  H       0.500607      2.185401      1.814393
  H       1.463539     -1.094346      0.404742
  H       0.775001     -2.105735      1.698343
  Br     -3.651512     -0.131778     -0.557284
  O       0.997368      0.141317     -1.494554
  C       0.918212     -0.040407     -2.824103
  H       0.292245      0.733190     -3.335015
  H       1.909715     -0.004828     -3.320174
  H       0.470232     -1.027418     -3.095065
23
Coordinates from ORCA-job optts+numfreq_initial_path E   0.000000000000
  C       0.657281     -1.189957      1.139864
  C       0.650923      0.038904      2.038987
  C      -0.804549      1.241326      0.389806
  H      -1.093612     -0.005026     -1.456494
  C       0.504399      1.288665      1.181329
  H      -0.891488      2.117184     -0.254980
  H      -1.631652      1.250861      1.105051
  C      -0.649406     -1.286638      0.348560
  H      -0.179059     -0.026427      2.747815
  H       1.584273      0.089476      2.603274
  C      -0.907741     -0.022149     -0.405763
  H      -1.467240     -1.426331      1.060751
  H      -0.628949     -2.144845     -0.325123
  H       1.332286      1.339769      0.474429
  H       0.505796      2.189267      1.799046
  H       1.481887     -1.107812      0.431501
  H       0.774830     -2.103866      1.725769
  Br     -3.767236     -0.134938     -0.572000
  O       0.986578      0.107704     -1.481950
  C       0.909342     -0.021378     -2.819047
  H       0.311625      0.792993     -3.296122
  H       1.898969     -0.006596     -3.316072
  H       0.422744     -0.980187     -3.118631
23
Coordinates from ORCA-job optts+numfreq_initial_path E   0.000000000000
  C       0.665892     -1.193459      1.156583
  C       0.651630      0.044480      2.043174
  C      -0.784037      1.233654      0.368834
  H      -1.114781     -0.031954     -1.455264
  C       0.515758      1.287208      1.173548
  H      -0.865093      2.104245     -0.283616
  H      -1.621381      1.244308      1.071654
  C      -0.631031     -1.297306      0.351541
  H      -0.186237     -0.013772      2.743187
  H       1.578937      0.099718      2.616792
  C      -0.871320     -0.037657     -0.415712
  H      -1.460490     -1.426059      1.051841
  H      -0.604466     -2.161278     -0.314245
  H       1.352325      1.333099      0.476424
  H       0.510787      2.192980      1.783506
  H       1.499915     -1.120860      0.458272
  H       0.774504     -2.101614      1.752875
  Br     -3.881462     -0.138102     -0.586349
  O       0.975498      0.072722     -1.470760
  C       0.899908     -0.002517     -2.813642
  H       0.332828      0.851122     -3.254670
  H       1.887097     -0.008905     -3.312061
  H       0.375219     -0.930053     -3.141911
23
Coordinates from ORCA-job optts+numfreq_initial_path E   0.000000000000
  C       0.674349     -1.196716      1.173123
  C       0.652226      0.050153      2.047103
  C      -0.763620      1.225535      0.347739
  H      -1.135947     -0.058944     -1.451998
  C       0.526938      1.285692      1.165584
  H      -0.838836      2.090974     -0.312076
  H      -1.611046      1.237267      1.037967
  C      -0.612747     -1.307573      0.354404
  H      -0.193375     -0.001121      2.738209
  H       1.573381      0.110135      2.629981
  C      -0.834127     -0.053138     -0.426982
  H      -1.453570     -1.425578      1.042520
  H      -0.580029     -2.177346     -0.303300
  H       1.371954      1.326362      0.478201
  H       0.515619      2.196519      1.767751
  H       1.517600     -1.133474      0.485018
  H       0.774013     -2.098974      1.779652
  Br     -3.994392     -0.141313     -0.600445
  O       0.964137      0.036609     -1.461082
  C       0.889883      0.016249     -2.807872
  H       0.355776      0.907207     -3.210851
  H       1.874042     -0.011631     -3.308101
  H       0.327772     -0.876892     -3.164544
23
Coordinates from ORCA-job optts+numfreq_initial_path E   0.000000000000
  C       0.682642     -1.199727      1.189457
  C       0.652717      0.055908      2.050762
  C      -0.743254      1.216936      0.326502
  H      -1.156731     -0.085976     -1.446633
  C       0.537951      1.284089      1.157422
  H      -0.812656      2.077363     -0.340370
  H      -1.600572      1.229782      1.004019
  C      -0.594545     -1.317411      0.357121
  H      -0.200473      0.011519      2.732870
  H       1.567602      0.120706      2.642837
  C      -0.796578     -0.068663     -0.439510
  H      -1.446441     -1.424923      1.032815
  H      -0.555647     -2.193051     -0.292272
  H       1.391197      1.319523      0.479761
  H       0.520328      2.199859      1.751769
  H       1.534916     -1.145643      0.511690
  H       0.773349     -2.095946      1.806086
  Br     -4.106217     -0.144598     -0.614379
  O       0.952477     -0.000361     -1.453001
  C       0.879246      0.034995     -2.801724
  H       0.380378      0.960912     -3.164938
  H       1.859765     -0.014654     -3.304150
  H       0.280547     -0.820641     -3.186135
23
Coordinates from ORCA-job optts+numfreq_initial_path E   0.000000000000
  C       0.690764     -1.202496      1.205562
  C       0.653108      0.061724      2.054141
  C      -0.722896      1.207842      0.305112
  H      -1.176761     -0.113034     -1.439216
  C       0.548809      1.282374      1.149057
  H      -0.786505      2.063409     -0.368509
  H      -1.589891      1.221906      0.969847
  C      -0.576413     -1.326807      0.359673
  H      -0.207526      0.024140      2.727164
  H       1.561602      0.131403      2.655357
  C      -0.759076     -0.084295     -0.453202
  H      -1.439067     -1.424134      1.022754
  H      -0.531328     -2.208396     -0.281147
  H       1.410081      1.312561      0.481121
  H       0.524951      2.202981      1.735554
  H       1.551834     -1.157363      0.538232
  H       0.772510     -2.092531      1.832163
  Br     -4.217126     -0.147965     -0.628215
  O       0.940463     -0.037882     -1.446568
  C       0.867990      0.053793     -2.795188
  H       0.406518      1.011945     -3.117252
  H       1.844237     -0.017858     -3.300169
  H       0.233722     -0.761317     -3.206270
23
Coordinates from ORCA-job optts+numfreq_initial_path E   0.000000000000
  C       0.698711     -1.205031      1.221415
  C       0.653409      0.067581      2.057232
  C      -0.702503      1.198251      0.283566
  H      -1.195697     -0.140096     -1.429901
  C       0.559526      1.280522      1.140491
  H      -0.760331      2.049109     -0.396511
  H      -1.578942      1.213690      0.935487
  C      -0.558332     -1.335767      0.362047
  H      -0.214524      0.036732      2.721087
  H       1.555387      0.142201      2.667541
  C      -0.721972     -0.100090     -0.467948
  H      -1.431416     -1.423254      1.012371
  H      -0.507076     -2.223391     -0.269912
  H       1.428638      1.305460      0.482309
  H       0.529526      2.205865      1.719108
  H       1.568332     -1.168641      0.564596
  H       0.771495     -2.088737      1.857868
  Br     -4.327314     -0.151413     -0.642007
  O       0.928002     -0.075626     -1.441800
  C       0.856110      0.072715     -2.788250
  H       0.434038      1.060067     -3.068134
  H       1.827435     -0.021123     -3.296120
  H       0.187499     -0.699025     -3.224535
23
Coordinates from ORCA-job optts+numfreq_initial_path E   0.000000000000
  C       0.706483     -1.207341      1.237005
  C       0.653631      0.073460      2.060031
  C      -0.682029      1.188171      0.261861
  H      -1.213237     -0.167122     -1.418929
  C       0.570118      1.278511      1.131727
  H      -0.734081      2.034458     -0.424402
  H      -1.567669      1.205179      0.900958
  C      -0.540276     -1.344305      0.364233
  H      -0.221461      0.049286      2.714635
  H       1.548960      0.153073      2.679389
  C      -0.685546     -0.116100     -0.483635
  H      -1.423459     -1.422323      1.001688
  H      -0.482882     -2.238047     -0.258562
  H       1.446908      1.298212      0.483364
  H       0.534088      2.208497      1.702432
  H       1.584395     -1.179498      0.590746
  H       0.770302     -2.084572      1.883196
  Br     -4.436999     -0.154927     -0.655792
  O       0.914967     -0.113260     -1.438674
  C       0.843614      0.091834     -2.780880
  H       0.462741      1.105087     -3.017904
  H       1.809334     -0.024323     -3.291969
  H       0.142099     -0.633947     -3.240517
23
Coordinates from ORCA-job optts+numfreq_initial_path E   0.000000000000
  C       0.714093     -1.209452      1.252354
  C       0.653784      0.079349      2.062550
  C      -0.661411      1.177618      0.239986
  H      -1.229171     -0.194081     -1.406609
  C       0.580622      1.276320      1.122765
  H      -0.707672      2.019449     -0.452236
  H      -1.556025      1.196415      0.866241
  C      -0.522195     -1.352473      0.366239
  H      -0.228340      0.061816      2.707803
  H       1.542317      0.164010      2.690934
  C      -0.649999     -0.132392     -0.500152
  H      -1.415166     -1.421391      0.990727
  H      -0.458699     -2.252402     -0.247085
  H       1.464958      1.290793      0.484328
  H       0.538683      2.210872      1.685508
  H       1.600042     -1.189984      0.616697
  H       0.768930     -2.080050      1.908191
  Br     -4.546514     -0.158487     -0.669609
  O       0.901256     -0.150504     -1.437122
  C       0.830488      0.111245     -2.773059
  H       0.492410      1.146957     -2.966833
  H       1.789908     -0.027329     -3.287694
  H       0.097701     -0.566300     -3.253924
23
Coordinates from ORCA-job optts+numfreq_initial_path E   0.000000000000
  C       0.721551     -1.211384      1.267481
  C       0.653881      0.085234      2.064799
  C      -0.640603      1.166618      0.217942
  H      -1.243340     -0.220891     -1.393274
  C       0.591070      1.273933      1.113616
  H      -0.681041      2.004084     -0.480044
  H      -1.543972      1.187430      0.831332
  C      -0.504053     -1.360311      0.368066
  H      -0.235158      0.074323      2.700590
  H       1.535460      0.174997      2.702194
  C      -0.615459     -0.149010     -0.517396
  H      -1.406512     -1.420494      0.979502
  H      -0.434489     -2.266477     -0.235482
  H       1.482843      1.283193      0.485246
  H       0.543349      2.212985      1.668331
  H       1.615284     -1.200149      0.642467
  H       0.767377     -2.075188      1.932880
  Br     -4.656138     -0.162065     -0.683484
  O       0.886761     -0.187054     -1.437055
  C       0.816744      0.131024     -2.764760
  H       0.522773      1.185614     -2.915193
  H       1.769141     -0.030000     -3.283274
  H       0.054529     -0.496412     -3.264485
23
Coordinates from ORCA-job optts+numfreq_initial_path E   0.000000000000
  C       0.728860     -1.213164      1.282398
  C       0.653938      0.091096      2.066788
  C      -0.619566      1.155207      0.195745
  H      -1.255649     -0.247434     -1.379264
  C       0.601489      1.271339      1.104298
  H      -0.654131      1.988376     -0.507845
  H      -1.531476      1.178250      0.796240
  C      -0.485819     -1.367850      0.369711
  H      -0.241904      0.086799      2.692998
  H       1.528400      0.186010      2.713182
  C      -0.581981     -0.165975     -0.535284
  H      -1.397475     -1.419659      0.968024
  H      -0.410233     -2.280273     -0.223774
  H       1.500604      1.275417      0.486164
  H       0.548122      2.214828      1.650916
  H       1.630138     -1.210049      0.668081
  H       0.765642     -2.070012      1.957272
  Br     -4.766106     -0.165628     -0.697434
  O       0.871373     -0.222588     -1.438338
  C       0.802408      0.151223     -2.755950
  H       0.553476      1.221013     -2.863261
  H       1.747051     -0.032180     -3.278686
  H       0.012838     -0.424746     -3.271980
23
Coordinates from ORCA-job optts+numfreq_initial_path E   0.000000000000
  C       0.736021     -1.214820      1.297124
  C       0.653970      0.096918      2.068529
  C      -0.598271      1.143428      0.173414
  H      -1.266086     -0.273574     -1.364890
  C       0.611906      1.268531      1.094834
  H      -0.626886      1.972344     -0.535656
  H      -1.518513      1.168893      0.760973
  C      -0.467468     -1.375116      0.371166
  H      -0.248566      0.099231      2.685035
  H       1.521149      0.197022      2.723909
  C      -0.549568     -0.183295     -0.553747
  H      -1.388040     -1.418902      0.956298
  H      -0.385913     -2.293786     -0.211989
  H       1.518278      1.267474      0.487120
  H       0.553033      2.216397      1.633280
  H       1.644628     -1.219742      0.693580
  H       0.763722     -2.064555      1.981377
  Br     -4.876618     -0.169136     -0.711468
  O       0.855023     -0.256801     -1.440800
  C       0.787524      0.171880     -2.746596
  H       0.584124      1.253164     -2.811296
  H       1.723682     -0.033707     -3.273902
  H      -0.027130     -0.351847     -3.276294
23
Coordinates from ORCA-job optts+numfreq_initial_path E   0.000000000000
  C       0.743035     -1.216382      1.311681
  C       0.653992      0.102683      2.070038
  C      -0.576693      1.131328      0.150970
  H      -1.274713     -0.299180     -1.350404
  C       0.622347      1.265502      1.085246
  H      -0.599252      1.956005     -0.563489
  H      -1.505065      1.159374      0.725538
  C      -0.448981     -1.382128      0.372421
  H      -0.255129      0.111606      2.676708
  H       1.513720      0.208011      2.734388
  C      -0.518183     -0.200966     -0.572736
  H      -1.378195     -1.418237      0.944327
  H      -0.361513     -2.307007     -0.200163
  H       1.535897      1.259372      0.488149
  H       0.558111      2.217689      1.615441
  H       1.658779     -1.229291      0.719024
  H       0.761614     -2.058853      2.005206
  Br     -4.987853     -0.172549     -0.725592
  O       0.837692     -0.289427     -1.444245
  C       0.772148      0.193022     -2.736671
  H       0.614302      1.282140     -2.759527
  H       1.699109     -0.034423     -3.268894
  H      -0.065169     -0.278290     -3.277417
23
Coordinates from ORCA-job optts+numfreq_initial_path E   0.000000000000
  C       0.749904     -1.217878      1.326095
  C       0.654020      0.108378      2.071329
  C      -0.554808      1.118950      0.128434
  H      -1.281652     -0.324143     -1.335984
  C       0.632839      1.262249      1.075554
  H      -0.571172      1.939380     -0.591356
  H      -1.491117      1.149703      0.689938
  C      -0.430340     -1.388904      0.373467
  H      -0.261584      0.123915      2.668026
  H       1.506123      0.218958      2.744634
  C      -0.487764     -0.218978     -0.592219
  H      -1.367930     -1.417668      0.932108
  H      -0.337021     -2.319925     -0.188331
  H       1.553487      1.251118      0.489272
  H       0.563382      2.218701      1.597415
  H       1.672625     -1.238755      0.744484
  H       0.759314     -2.052940      2.028775
  Br     -5.099976     -0.175825     -0.739809
  O       0.819417     -0.320253     -1.448460
  C       0.756344      0.214662     -2.726149
  H       0.643603      1.308081     -2.708147
  H       1.673429     -0.034184     -3.263630
  H      -0.101124     -0.204641     -3.275447
23
Coordinates from ORCA-job optts+numfreq_initial_path E   0.000000000000
  C       0.756631     -1.219338      1.340395
  C       0.654066      0.113991      2.072418
  C      -0.532595      1.106337      0.105820
  H      -1.287068     -0.348390     -1.321730
  C       0.643411      1.258768      1.065773
  H      -0.542586      1.922484     -0.619273
  H      -1.476655      1.139884      0.654166
  C      -0.411526     -1.395455      0.374293
  H      -0.267917      0.136151      2.658995
  H       1.498368      0.229846      2.754659
  C      -0.458236     -0.237314     -0.612188
  H      -1.357234     -1.417199      0.919640
  H      -0.312426     -2.332531     -0.176525
  H       1.571074      1.242716      0.490504
  H       0.568871      2.219432      1.579213
  H       1.686197     -1.248189      0.770042
  H       0.756818     -2.046849      2.052105
  Br     -5.213153     -0.178926     -0.754126
  O       0.800285     -0.349129     -1.453222
  C       0.740178      0.236805     -2.715008
  H       0.671643      1.331183     -2.657302
  H       1.646754     -0.032868     -3.258072
  H      -0.134901     -0.131410     -3.270579
23
Coordinates from ORCA-job optts+numfreq_initial_path E   0.000000000000
  C       0.763220     -1.220785      1.354611
  C       0.654142      0.119515      2.073318
  C      -0.510030      1.093526      0.083136
  H      -1.291150     -0.371885     -1.307676
  C       0.654088      1.255056      1.055914
  H      -0.513432      1.905330     -0.647257
  H      -1.461664      1.129919      0.618212
  C      -0.392522     -1.401792      0.374891
  H      -0.274120      0.148307      2.649621
  H       1.490463      0.240668      2.764480
  C      -0.429522     -0.255952     -0.632652
  H      -1.346098     -1.416831      0.906922
  H      -0.287716     -2.344821     -0.164768
  H       1.588678      1.234168      0.491850
  H       0.574597      2.219880      1.560841
  H       1.699531     -1.257638      0.795784
  H       0.754126     -2.040607      2.075219
  Br     -5.327551     -0.181815     -0.768552
  O       0.780430     -0.375977     -1.458311
  C       0.723712      0.259446     -2.703233
  H       0.698081      1.351692     -2.607090
  H       1.619204     -0.030378     -3.252177
  H      -0.166468     -0.059023     -3.263083
23
Coordinates from ORCA-job optts+numfreq_initial_path E   0.000000000000
  C       0.769681     -1.222244      1.368776
  C       0.654260      0.124948      2.074042
  C      -0.487093      1.080550      0.060386
  H      -1.294084     -0.394637     -1.293800
  C       0.664895      1.251110      1.045982
  H      -0.483647      1.887926     -0.675329
  H      -1.446132      1.119806      0.582053
  C      -0.373310     -1.407929      0.375258
  H      -0.280184      0.160386      2.639906
  H       1.482411      0.251417      2.774108
  C      -0.401550     -0.274870     -0.653638
  H      -1.334511     -1.416562      0.893954
  H      -0.262884     -2.356799     -0.153074
  H       1.606319      1.225471      0.493307
  H       0.580578      2.220042      1.542296
  H       1.712658     -1.267144      0.821791
  H       0.751239     -2.034237      2.098145
  Br     -5.443341     -0.184461     -0.783099
  O       0.760026     -0.400788     -1.463504
  C       0.706997      0.282577     -2.690816
  H       0.722623      1.369891     -2.557563
  H       1.590897     -0.026649     -3.245893
  H      -0.195848      0.012194     -3.253287
