23
Coordinates from ORCA-job optts+numfreq_XTB-NEB-CI_initial_path E   0.000000000000
  C       0.526845     -1.167308      1.150969
  C       0.641718     -0.003594      2.130813
  C      -1.041071      1.280814      0.788197
  H      -0.391400      0.255765     -1.008167
  C       0.353550      1.309700      1.409694
  H      -1.233035      2.218722      0.260310
  H      -1.800788      1.159537      1.566851
  C      -0.866300     -1.202391      0.526155
  H      -0.074672     -0.139667      2.944795
  H       1.646045      0.021525      2.556934
  C      -1.107166      0.117009     -0.181838
  H      -1.625150     -1.353336      1.300570
  H      -0.933256     -2.028688     -0.187605
  H       1.082120      1.449537      0.605876
  H       0.431095      2.151975      2.099823
  H       1.258775     -1.037836      0.348132
  H       0.728244     -2.115900      1.653061
  Br     -2.878096      0.079393     -1.021791
  O       1.081541      0.472887     -2.240770
  C       1.056794     -0.191749     -3.376941
  H       0.121469     -0.020865     -3.994528
  H       1.908982      0.063166     -4.074630
  H       1.113754     -1.318693     -3.255911
23
Coordinates from ORCA-job optts+numfreq_XTB-NEB-CI_initial_path E   0.000000000000
  C       0.553359     -1.174190      1.153689
  C       0.647162      0.003637      2.117246
  C      -1.000233      1.286942      0.731077
  H      -0.496762      0.222486     -1.083046
  C       0.382096      1.308546      1.374397
  H      -1.172432      2.215402      0.180223
  H      -1.770948      1.185762      1.501277
  C      -0.826262     -1.226063      0.506651
  H      -0.089238     -0.120144      2.915088
  H       1.640523      0.030912      2.568333
  C      -1.104693      0.087890     -0.183510
  H      -1.594498     -1.373965      1.272122
  H      -0.877309     -2.058906     -0.200250
  H       1.127923      1.434314      0.585307
  H       0.455351      2.161832      2.051774
  H       1.302086     -1.053169      0.366525
  H       0.750595     -2.117171      1.668306
  Br     -3.179426      0.027702     -0.992348
  O       1.111151      0.436338     -2.126497
  C       1.047613     -0.169540     -3.300273
  H       0.160172      0.147134     -3.923372
  H       1.953034      0.041139     -3.935715
  H       0.980737     -1.296884     -3.247002
23
Coordinates from ORCA-job optts+numfreq_XTB-NEB-CI_initial_path E   0.000000000000
  C       0.578629     -1.181498      1.160504
  C       0.650073      0.010927      2.106932
  C      -0.955965      1.292396      0.669878
  H      -0.625200      0.184003     -1.168407
  C       0.409505      1.308206      1.343929
  H      -1.108074      2.210168      0.096177
  H      -1.740295      1.213105      1.428745
  C      -0.784558     -1.247623      0.485652
  H      -0.107282     -0.100488      2.886719
  H       1.631188      0.040604      2.584049
  C      -1.079119      0.062127     -0.188788
  H      -1.564653     -1.392551      1.239646
  H      -0.821461     -2.086868     -0.213636
  H       1.176182      1.421805      0.574237
  H       0.473983      2.171697      2.009637
  H       1.347275     -1.071252      0.392371
  H       0.766690     -2.119132      1.688601
  Br     -3.461795     -0.024689     -0.926938
  O       1.101990      0.387579     -2.021020
  C       1.038884     -0.145895     -3.234811
  H       0.222802      0.309820     -3.861971
  H       1.996270      0.014426     -3.796779
  H       0.854930     -1.256868     -3.254727
23
Coordinates from ORCA-job optts+numfreq_XTB-NEB-CI_initial_path E   0.000000000000
  C       0.602429     -1.189309      1.170870
  C       0.650953      0.018321      2.099339
  C      -0.909022      1.295068      0.605284
  H      -0.773694      0.136606     -1.256679
  C       0.435794      1.309012      1.317788
  H      -1.042012      2.201237      0.009828
  H      -1.710380      1.234872      1.347696
  C      -0.742224     -1.266190      0.463107
  H      -0.127932     -0.080905      2.859267
  H       1.618718      0.050593      2.602860
  C      -1.017382      0.041108     -0.208013
  H      -1.537964     -1.403692      1.201697
  H      -0.766926     -2.113079     -0.226301
  H       1.226728      1.412973      0.572277
  H       0.486116      2.181732      1.972864
  H       1.394051     -1.092032      0.425445
  H       0.775757     -2.121882      1.712953
  Br     -3.717305     -0.073559     -0.841160
  O       1.062012      0.330935     -1.923626
  C       1.027915     -0.120346     -3.175798
  H       0.296660      0.463600     -3.794087
  H       2.027517     -0.014447     -3.663734
  H       0.740190     -1.200615     -3.271878
23
Coordinates from ORCA-job optts+numfreq_XTB-NEB-CI_initial_path E   0.000000000000
  C       0.623592     -1.197031      1.178828
  C       0.649886      0.025209      2.089806
  C      -0.861807      1.294975      0.537127
  H      -0.924719      0.086254     -1.328542
  C       0.459862      1.311133      1.292917
  H      -0.977147      2.190434     -0.077043
  H      -1.681615      1.249898      1.259250
  C      -0.701398     -1.278270      0.434408
  H      -0.150367     -0.063580      2.828446
  H       1.603485      0.059261      2.619537
  C      -0.929335      0.026656     -0.251508
  H      -1.513968     -1.406074      1.155308
  H      -0.716224     -2.135001     -0.242227
  H       1.276734      1.409087      0.575189
  H       0.492372      2.191162      1.939293
  H       1.440960     -1.112741      0.460465
  H       0.778620     -2.125882      1.732649
  Br     -3.955736     -0.121947     -0.729789
  O       1.012243      0.271367     -1.831845
  C       1.016293     -0.095498     -3.115522
  H       0.370597      0.600306     -3.705091
  H       2.045929     -0.044795     -3.535830
  H       0.641744     -1.134920     -3.285827
23
Coordinates from ORCA-job optts+numfreq_XTB-NEB-CI_initial_path E   0.000000000000
  C       0.643619     -1.204559      1.214260
  C       0.647323      0.039514      2.096360
  C      -0.810585      1.275281      0.468121
  H      -1.024983      0.002555     -1.361344
  C       0.487362      1.308402      1.265294
  H      -0.908053      2.156654     -0.168430
  H      -1.654521      1.241224      1.161271
  C      -0.657394     -1.298501      0.427856
  H      -0.176114     -0.028869      2.811348
  H       1.584337      0.083447      2.654143
  C      -0.823741     -0.006603     -0.301850
  H      -1.498049     -1.399326      1.118798
  H      -0.652556     -2.171133     -0.227889
  H       1.328647      1.388935      0.573865
  H       0.498684      2.202693      1.892137
  H       1.485415     -1.145372      0.521896
  H       0.771089     -2.119551      1.796887
  Br     -4.148220     -0.134818     -0.721890
  O       0.989153      0.157498     -1.752208
  C       0.979840     -0.046243     -3.076678
  H       0.413122      0.770872     -3.577475
  H       2.013213     -0.047516     -3.479950
  H       0.512412     -1.024582     -3.334522
23
Coordinates from ORCA-job optts+numfreq_XTB-NEB-CI_initial_path E   0.000000000000
  C       0.662189     -1.210248      1.248788
  C       0.644475      0.055127      2.100407
  C      -0.759500      1.249692      0.397978
  H      -1.106411     -0.077046     -1.369851
  C       0.514332      1.303975      1.233870
  H      -0.839976      2.118436     -0.257834
  H      -1.626576      1.225534      1.061345
  C      -0.613214     -1.316515      0.420822
  H      -0.200894      0.006450      2.791020
  H       1.564287      0.110645      2.685149
  C      -0.722251     -0.043213     -0.360517
  H      -1.480726     -1.392249      1.079834
  H      -0.589218     -2.204997     -0.212929
  H       1.376918      1.366523      0.566979
  H       0.505671      2.212219      1.839971
  H       1.527522     -1.174569      0.584158
  H       0.761808     -2.110001      1.859422
  Br     -4.336248     -0.142387     -0.724462
  O       0.967994      0.036074     -1.684118
  C       0.940527      0.005570     -3.030095
  H       0.457088      0.923447     -3.423479
  H       1.968846     -0.049976     -3.432372
  H       0.383356     -0.892491     -3.374086
23
Coordinates from ORCA-job optts+numfreq_XTB-NEB-CI_initial_path E   0.000000000000
  C       0.680028     -1.214006      1.280888
  C       0.641446      0.071556      2.101147
  C      -0.707853      1.219969      0.326894
  H      -1.168105     -0.150358     -1.362251
  C       0.541295      1.297505      1.198488
  H      -0.771184      2.076487     -0.346737
  H      -1.596968      1.206942      0.960225
  C      -0.568775     -1.334250      0.413820
  H      -0.224706      0.042107      2.766680
  H       1.543274      0.140130      2.712030
  C      -0.634552     -0.084454     -0.421023
  H      -1.460934     -1.388168      1.040552
  H      -0.526497     -2.237745     -0.197633
  H       1.422831      1.341126      0.555112
  H       0.514397      2.219461      1.782730
  H       1.566804     -1.199454      0.644182
  H       0.752639     -2.097167      1.918633
  Br     -4.526605     -0.148215     -0.733678
  O       0.943409     -0.084740     -1.627440
  C       0.900494      0.059104     -2.974068
  H       0.508010      1.054811     -3.252591
  H       1.915592     -0.053429     -3.388408
  H       0.255960     -0.737213     -3.397552
23
Coordinates from ORCA-job optts+numfreq_XTB-NEB-CI_initial_path E   0.000000000000
  C       0.697890     -1.215978      1.310143
  C       0.638608      0.088312      2.098830
  C      -0.655174      1.187520      0.255868
  H      -1.212821     -0.218712     -1.347152
  C       0.568773      1.289077      1.160349
  H      -0.700873      2.031211     -0.435344
  H      -1.565136      1.187335      0.858978
  C      -0.524004     -1.352639      0.407339
  H      -0.247259      0.077699      2.738558
  H       1.521643      0.171108      2.735016
  C      -0.561273     -0.129973     -0.480127
  H      -1.438224     -1.388139      1.002529
  H      -0.464203     -2.270113     -0.181654
  H       1.467663      1.313005      0.540364
  H       0.525379      2.224480      1.721694
  H       1.603086     -1.220059      0.699800
  H       0.744810     -2.081246      1.974090
  Br     -4.725006     -0.153768     -0.749701
  O       0.909895     -0.196015     -1.580379
  C       0.860467      0.112959     -2.909203
  H       0.567982      1.163304     -3.074436
  H       1.853963     -0.058063     -3.346472
  H       0.133815     -0.561305     -3.399088
23
Coordinates from ORCA-job optts+numfreq_XTB-NEB-CI_initial_path E   0.000000000000
  C       0.716056     -1.216573      1.336701
  C       0.636273      0.104901      2.094040
  C      -0.600849      1.153289      0.185541
  H      -1.244591     -0.283389     -1.330462
  C       0.597146      1.279057      1.121096
  H      -0.628241      1.983339     -0.523170
  H      -1.530327      1.167448      0.758280
  C      -0.478466     -1.371237      0.400663
  H      -0.268376      0.112621      2.707083
  H       1.499690      0.202644      2.754707
  C      -0.499345     -0.178460     -0.537847
  H      -1.412173     -1.391796      0.965676
  H      -0.401430     -2.301682     -0.165603
  H       1.512542      1.283307      0.525410
  H       0.538641      2.227469      1.658765
  H       1.636812     -1.237362      0.750714
  H       0.738250     -2.062932      2.025737
  Br     -4.938277     -0.159592     -0.772584
  O       0.867088     -0.289731     -1.539011
  C       0.820056      0.165521     -2.837744
  H       0.634486      1.248171     -2.896560
  H       1.783776     -0.062375     -3.306348
  H       0.021259     -0.372637     -3.375083
23
Coordinates from ORCA-job optts+numfreq_XTB-NEB-CI_initial_path E   0.000000000000
  C       0.734201     -1.216384      1.361182
  C       0.634633      0.120923      2.087458
  C      -0.544004      1.118040      0.116265
  H      -1.266919     -0.343950     -1.315594
  C       0.626913      1.267802      1.082161
  H      -0.551903      1.934102     -0.609290
  H      -1.491557      1.147680      0.658522
  C      -0.431364     -1.388869      0.392253
  H      -0.288022      0.146319      2.672701
  H       1.477550      0.233904      2.771892
  C      -0.445241     -0.228270     -0.595767
  H      -1.382315     -1.398197      0.928592
  H      -0.336832     -2.331102     -0.151244
  H       1.558351      1.253144      0.512249
  H       0.554299      2.228594      1.595687
  H       1.668829     -1.252822      0.798848
  H       0.731596     -2.043239      2.073832
  Br     -5.173566     -0.165518     -0.801855
  O       0.819700     -0.361775     -1.498193
  C       0.778367      0.215683     -2.762404
  H       0.699726      1.309817     -2.723840
  H       1.705783     -0.062319     -3.267878
  H      -0.078226     -0.183564     -3.325575
23
Coordinates from ORCA-job optts+numfreq_XTB-NEB-CI_initial_path E   0.000000000000
  C       0.751671     -1.216000      1.384258
  C       0.633861      0.136099      2.079667
  C      -0.483921      1.082570      0.048551
  H      -1.282408     -0.398567     -1.304179
  C       0.658712      1.255562      1.044558
  H      -0.470296      1.885165     -0.692259
  H      -1.448000      1.128458      0.560292
  C      -0.381938     -1.404199      0.380517
  H      -0.306081      0.178371      2.635873
  H       1.455385      0.264263      2.787194
  C      -0.395928     -0.277713     -0.655862
  H      -1.348316     -1.406210      0.889572
  H      -0.269514     -2.356829     -0.140578
  H       1.605536      1.223150      0.501548
  H       0.572787      2.227958      1.533771
  H       1.699923     -1.267641      0.847076
  H       0.723099     -2.023202      2.118602
  Br     -5.435823     -0.170968     -0.836559
  O       0.773266     -0.412810     -1.453190
  C       0.734918      0.262798     -2.685334
  H       0.752981      1.350890     -2.558912
  H       1.623261     -0.053013     -3.229505
  H      -0.163175     -0.008132     -3.255102
