23
Coordinates from ORCA-job optts+numfreq_XTB-NEB-CI_im11
  C   0.78124563832310     -1.21714606911750      1.36709810249419
  C   0.65793920329947      0.12919646141001      2.07266612451398
  C   -0.49439074447267      1.07644869819796      0.06102232768976
  H   -1.29386733311621     -0.40481141310107     -1.29107106834226
  C   0.65846303449584      1.25512402915827      1.04428694056843
  H   -0.49737784278460      1.88363982307180     -0.67491512760218
  H   -1.45284988541077      1.10953471933572      0.58418418491880
  C   -0.36312715731382     -1.41088248624907      0.37669335968264
  H   -0.27565616205305      0.15815734567120      2.64031256276962
  H   1.48632486296563      0.26168153296052      2.77126669910150
  C   -0.40094104117576     -0.27849661134180     -0.65272283003146
  H   -1.32298398391118     -1.42479502011087      0.89781263501106
  H   -0.24825239939370     -2.35941677053103     -0.15123962008220
  H   1.59884899750548      1.23571582303982      0.48957514759040
  H   0.56856800882824      2.22371929653349      1.54025609943630
  H   1.72289621601205     -1.25526152952472      0.81734032804184
  H   0.77066653358787     -2.02936374133871      2.09634655724636
  Br  -5.44357213757423     -0.21071960783284     -0.77090463344940
  O   0.75975162549883     -0.39668683253302     -1.46509180637887
  C   0.69938810528971      0.28658174214193     -2.69223023008355
  H   0.70717299986226      1.37391254429440     -2.55865699216029
  H   1.58441089638542     -0.01597109052073     -3.24913484103805
  H   -0.20265743484792      0.00983915638624     -3.25289391989663
