23
Coordinates from ORCA-job optts+numfreq_XTB-NEB-CI_im3
  C   0.61829667996538     -1.17094243044703      1.08628923596304
  C   0.64968562311250      0.02464766619541      2.02792085208444
  C   -0.90174709690706      1.26330003152580      0.48828340302289
  H   -0.94279608236759      0.08257839631487     -1.39251019631017
  C   0.45421291276719      1.29017653291166      1.20461371823811
  H   -0.99695060132100      2.15084461708232     -0.14201391628653
  H   -1.67752308568068      1.28914524749299      1.25582895148706
  C   -0.73605161936893     -1.25665044469054      0.37130876230245
  H   -0.14607917356811     -0.06474274146703      2.77292274091412
  H   1.60699028706315      0.06306861795567      2.55239415092900
  C   -1.14179202284935      0.01761578106148     -0.33565835373500
  H   -1.49487198823436     -1.45295553198487      1.13122200370854
  H   -0.72279528975938     -2.08951907324420     -0.33678719821056
  H   1.24743559719506      1.35851905877908      0.45921631355597
  H   0.48648615851909      2.17624008975470      1.84507536085120
  H   1.40624966274910     -1.05700242397908      0.33986006367849
  H   0.77694837431414     -2.10266322206598      1.63692039586839
  Br  -3.28414937083067     -0.11537429581001     -0.52762170599819
  O   1.07157642004892      0.22639961241657     -1.60112121265123
  C   0.95758253488997     -0.08030426153285     -2.87818086321245
  H   0.25156575393550      0.58949712152771     -3.46056198323147
  H   1.93707292186955     -0.01228549155949     -3.41989222579635
  H   0.58065340445759     -1.12959285623719     -3.07750829717174
