23
Coordinates from ORCA-job optts+numfreq_im22
  C   0.72768225941423     -1.21571428801421      1.26231863227597
  C   0.66001933426483      0.08297160048022      2.06344087459737
  C   -0.61477370078292      1.15511968602502      0.19749713984195
  H   -1.28776011910063     -0.21700356276268     -1.35745223787140
  C   0.59071474618357      1.28091610060836      1.11969324091382
  H   -0.69186020958309      2.01708756035149     -0.47061685336420
  H   -1.53333940493237      1.14044755975466      0.79509294647985
  C   -0.47764049815058     -1.33618644302785      0.33643349932306
  H   -0.22507225233000      0.07128852338821      2.70499054471657
  H   1.54388024703465      0.16899588831211      2.69878106339343
  C   -0.47349801776665     -0.13631777592885     -0.63312086768123
  H   -1.39735108286501     -1.37254659939749      0.93049003053536
  H   -0.43611602678852     -2.26396076416839     -0.23879628464749
  H   1.48095576050698      1.29222625656433      0.48863423940015
  H   0.54319077120243      2.21345791272245      1.68243736852503
  H   1.61615593491238     -1.19993414522628      0.63138007441545
  H   0.77814593607817     -2.07638712918417      1.92899198848967
  Br  -4.61086079080080     -0.16548491963272     -0.67010492082817
  O   0.78342450925600     -0.16226504190343     -1.35564406407664
  C   0.74507274756123      0.12694063285299     -2.74204198072957
  H   0.48351137480740      1.16896996672283     -2.93639337502751
  H   1.74540139532444     -0.04418890776747     -3.16876269679038
  H   0.05011708655425     -0.52843211076912     -3.26724836189109
