23
Coordinates from ORCA-job optts+numfreq_im27
  C   0.76216646140130     -1.21941414741444      1.33764262011585
  C   0.65977039891667      0.11453089475320      2.07111108499335
  C   -0.52658728713691      1.10244078132835      0.10012752113890
  H   -1.29485652770331     -0.34877287780823     -1.31141293098130
  C   0.64386781317996      1.26123811198029      1.06534211148978
  H   -0.54822816626792      1.92583304877570     -0.61816138236421
  H   -1.47138636673948      1.12412730161249      0.64597903743213
  C   -0.40355359446734     -1.38823267022805      0.36730950860062
  H   -0.26009983484303      0.13611887879757      2.66115462176825
  H   1.50544652459284      0.23013892333681      2.75148605935314
  C   -0.42034751940728     -0.23701081393212     -0.64641980288279
  H   -1.35061176581851     -1.40408992248132      0.90792054081350
  H   -0.31078939015251     -2.33181469713261     -0.17578167681266
  H   1.57020046482064      1.24731083157188      0.48841946934379
  H   0.56877761420650      2.22057078264160      1.58152402381406
  H   1.68839238830117     -1.24663092314075      0.76334182048661
  H   0.76655774332663     -2.04580462474671      2.05066807798193
  Br  -5.20167456135222     -0.18593769461493     -0.74033134506241
  O   0.76730029263083     -0.34096777577879     -1.42530472833513
  C   0.71316735299025      0.23954038999856     -2.71071984403832
  H   0.65273478022861      1.33102813352547     -2.66459894954378
  H   1.63347902079829     -0.04305418425603     -3.22374609490490
  H   -0.14372584150517     -0.14114774678795     -3.27554974240639
