23
Coordinates from ORCA-job optts+numfreq_im9
  C   0.61303982688837     -1.17071499979834      1.08685322777858
  C   0.64946019872490      0.02028510008861      2.03492605260466
  C   -0.90934610264413      1.26406437899079      0.50528440327592
  H   -0.91343535135428      0.10044792103102     -1.38483971008684
  C   0.44918793994644      1.29065392804192      1.21940936088402
  H   -1.00916230256392      2.16038087578760     -0.11305546857821
  H   -1.68340072417752      1.27372274022223      1.27379384686474
  C   -0.74396123462354     -1.24895609895913      0.37304883213906
  H   -0.14301586639693     -0.07334530525087      2.78256999736729
  H   1.60922547373800      0.05600523402601      2.55611306677971
  C   -1.15664227083890      0.02665150598734     -0.33541452495195
  H   -1.50299914757428     -1.43963941581637      1.13301496917982
  H   -0.73311719191222     -2.08340358537714     -0.33448535646153
  H   1.24252783492882      1.36778590297937      0.47425768117535
  H   0.48234106711498      2.17150696672545      1.86746770422428
  H   1.40241844995228     -1.05739807696753      0.34100840172799
  H   0.77164872155464     -2.10429303320815      1.63492785697500
  Br  -3.26320512906972     -0.09882143062855     -0.56795837381771
  O   1.08088525086841      0.24678683615075     -1.63213879460522
  C   0.96608166765335     -0.08929561480633     -2.89741842221014
  H   0.22845643096371      0.54040388276610     -3.49008084288835
  H   1.93734868150572      0.00425898695643     -3.45299980827786
  H   0.62566377731582     -1.15708669894119     -3.07428409909860
