23
Coordinates from ORCA-job optts+numfreq_TSOpt
  C   0.63927275910443     -1.17369692422341      1.04330104282447
  C   0.65318972145966      0.01627302252717      1.99354337100395
  C   -0.87546642438710      1.27677912937055      0.45634950030489
  H   -1.04309757125733      0.11268902458202     -1.45469752099149
  C   0.47004948644514      1.29651864342026      1.18894278776078
  H   -0.98230614937066      2.17020257223011     -0.16217401345867
  H   -1.66381105362314      1.28512477638273      1.21509596074676
  C   -0.69984229230032     -1.24770534790096      0.30175052310789
  H   -0.15290824449089     -0.08245974074471      2.72593024119524
  H   1.60428172241244      0.04926157990812      2.52866401227858
  C   -1.02464355152013      0.04528609021773     -0.38901240608338
  H   -1.47447172302912     -1.45738914673807      1.04537000112090
  H   -0.68870923578924     -2.06729640426464     -0.42069441026774
  H   1.25831573906396      1.36420852896114      0.44013578481271
  H   0.50601837678046      2.17551838683206      1.83596275884642
  H   1.42812041666848     -1.04368772196586      0.30194200614582
  H   0.79596913892206     -2.11056274237162      1.58244079470867
  Br  -3.39500814839236     -0.11704981502799     -0.50434198739429
  O   1.01194005957529      0.26916763621256     -1.46734429464059
  C   0.92453360027105     -0.10197656771032     -2.75212237749553
  H   0.21250280986596      0.52378271185737     -3.35210897757231
  H   1.90645934567096     -0.02156750384873     -3.26835652685597
  H   0.58961121792041     -1.16142018770549     -2.88857627009712
