23
Coordinates from ORCA-job optts+numfreq_TSOpt_IRC_B
  C   0.57202270060087     -1.16564438222142      1.03254819025970
  C   0.63607186414099      0.01580996942078      1.99135769260058
  C   -1.01010619093493      1.27882340696315      0.60163687491525
  H   -0.71418461313142      0.12773862227230     -1.18593006786636
  C   0.40008904063894      1.28761347025324      1.18751496721882
  H   -1.13544883642106      2.15172915249882     -0.04827784311852
  H   -1.74791094418318      1.33664340318795      1.40668877624059
  C   -0.83060677028799     -1.27797029418494      0.43925011041259
  H   -0.13131696506002     -0.08720729822211      2.76237964015600
  H   1.61256617180392      0.05324171996477      2.47480444810343
  C   -1.23212188870282      0.02647147192053     -0.23204047049952
  H   -1.54527049168633     -1.53734934293946      1.22556832560252
  H   -0.84366982502525     -2.07426874437658     -0.31391766945332
  H   1.11578503263416      1.32262078040575      0.36308322714159
  H   0.52540551977724      2.17882474376375      1.80611902931955
  H   1.28138654494929     -0.99480239952767      0.21802905852808
  H   0.82519349500232     -2.10195353199714      1.53493768069012
  Br  -3.13620462596631     -0.08212152261194     -0.67235977452055
  O   1.37126864725988      0.35897730496555     -1.71775168617927
  C   1.06264295385649     -0.09016823898266     -2.90966264688670
  H   0.26999784046954      0.52291552559960     -3.45133758180515
  H   1.93577052138311     -0.12149774969570     -3.62950242804656
  H   0.64777034472061     -1.15069549647561     -2.92135362636763
