23
Coordinates from ORCA-job optts+numfreq_XTB-NEB-CI_im1
  C   0.56810158770526     -1.16847437080927      1.10888992571710
  C   0.64080079579906      0.01538988462661      2.06486257581107
  C   -0.98817928071594      1.27404170124207      0.63828237085229
  H   -0.63086020358283      0.14885652118703     -1.17392712878162
  C   0.40030345829494      1.29545457409699      1.27487057559174
  H   -1.11568540211683      2.16999006044031      0.02328954249681
  H   -1.74644460495105      1.27681816262880      1.42565177420653
  C   -0.81775891350291     -1.25094436489479      0.47065351400422
  H   -0.12060719205942     -0.08960882730809      2.84257275140176
  H   1.62043183463823      0.04995223082625      2.54474781971691
  C   -1.17968669456614      0.04525717036184     -0.23270770806764
  H   -1.55946562026287     -1.45781707584433      1.24680529678782
  H   -0.83388544960322     -2.07074106047113     -0.25499408640534
  H   1.15119812396939      1.37571964338523      0.48481137449459
  H   0.47456992297207      2.17099843057162      1.92397026385519
  H   1.31541101769709     -1.03762228986631      0.32141654799608
  H   0.76913138722898     -2.10509546242562      1.63450483905114
  Br  -3.07474338850843     -0.04693470017875     -0.73308024982698
  O   1.15219653897877      0.34235349106672     -1.88420076758453
  C   1.02760599866363     -0.11438699167901     -3.10943333880735
  H   0.21644863798161      0.39791643371691     -3.71476657032298
  H   1.96329809425478     -0.00403812886447     -3.72949477278157
  H   0.76781935168583     -1.21708503180860     -3.17272454940523
