23
Coordinates from ORCA-job optts+numfreq_product
  C   2.77890984640782     -1.25120304419883     -0.41287774326648
  C   3.19243369218552      0.02182383144899      0.31790675011339
  C   1.35275314797279      1.27627820429809     -0.82777793894696
  H   -0.18966092214490      0.02519720452892     -1.67452663190705
  C   2.84868210933060      1.24159205865662     -0.53018735597929
  H   1.10333280843928      2.15099988203730     -1.43258781182652
  H   0.77958350687669      1.34766940464876      0.09948289710132
  C   1.28500557554894     -1.23149781638516     -0.72246690564982
  H   2.66144384832945      0.08271991437462      1.27131359603542
  H   4.26423960570158      0.00157338863164      0.52465462240194
  C   0.90806974164916     -0.00133491807127     -1.55184401253250
  H   0.70239630318918     -1.20705469555097      0.20111169490566
  H   1.00369638694876     -2.12751079758553     -1.27898213546528
  H   3.39334878297760      1.18843225125968     -1.47512029311434
  H   3.13968489543404      2.15841587132775     -0.01344996749959
  H   3.32520633286683     -1.32416444625603     -1.35449931808112
  H   3.01168576462176     -2.12851038250665      0.19358633429273
  Br  -3.50870133831540      0.55235292391241      0.82094987191343
  O   1.50616888774414     -0.14727083694649     -2.83324050329172
  C   0.95426467344585      0.65983854729207     -3.84322715749569
  H   1.17140688637381      1.72208458898945     -3.68595212377061
  H   1.41165924918413      0.33110696661503     -4.77475112780789
  H   -0.13410713134787      0.53013765409721     -3.90009865648743
