23
Coordinates from ORCA-job optts+numfreq_im2
  C   0.54484992280905     -1.16713269943115      1.13371693533780
  C   0.64295482718477      0.00163404521459      2.10833127704928
  C   -1.01608064941377      1.27740069478035      0.72818114612796
  H   -0.48909123399004      0.22407078288193     -1.09741328082033
  C   0.37417908112889      1.30429540526868      1.36256150721340
  H   -1.18258526034736      2.20695835083121      0.17461724601949
  H   -1.77708858717159      1.19348383269592      1.50836995478385
  C   -0.84389160321694     -1.21512732703512      0.49601561819319
  H   -0.09153127401236     -0.12397162845514      2.90768882031287
  H   1.63779982736456      0.02862827798126      2.55752110526995
  C   -1.13392796875478      0.09425113574999     -0.21426181692515
  H   -1.59901200699925     -1.38194394310641      1.26864442818763
  H   -0.88952662754519     -2.04318649988471     -0.21947298128823
  H   1.11777926981634      1.42841534643729      0.57109353162681
  H   0.44332775884654      2.15590755241407      2.04301345823955
  H   1.29013000288967     -1.04125077635725      0.34374273853200
  H   0.73872986143998     -2.11195176360234      1.64697146730001
  Br  -2.96783942741259      0.03497362997716     -0.91174174667291
  O   1.09962239405893      0.43117515229551     -2.10018029957785
  C   1.04089713830796     -0.16714906839014     -3.27003565744706
  H   0.13533933140917      0.11699271645351     -3.89094341852474
  H   1.92621959435025      0.05314273405176     -3.93507458283434
  H   0.99874562925778     -1.29961595077098     -3.21134545010318
