23
Coordinates from ORCA-job optts+numfreq_im20
  C   0.71278907027896     -1.21296542443483      1.23029379937165
  C   0.65958590294876      0.06989373763847      2.05822860247105
  C   -0.65056036641841      1.17534794049135      0.23707418841910
  H   -1.28361592693936     -0.16046715509920     -1.37626977778525
  C   0.56963308472754      1.28759461084068      1.14140305686181
  H   -0.74885073744747      2.05128980955082     -0.40886243316888
  H   -1.55628202731434      1.14893973457674      0.85637991650696
  C   -0.50852027920017     -1.31393902986425      0.32299228196987
  H   -0.21057973708021      0.04368749260740      2.71979274243213
  H   1.55818900574790      0.14451900099209      2.67441066678422
  C   -0.49381054983989     -0.09499774328366     -0.62665607749378
  H   -1.41484085166744     -1.36198108535816      0.93987693316333
  H   -0.48810338388083     -2.23427035038532     -0.26475438005917
  H   1.44321743298780      1.30946262217553      0.48852460770495
  H   0.53393139192335      2.20916731864136      1.72208519056885
  H   1.58412248834457     -1.17839220782652      0.57708428992153
  H   0.78134933115374     -2.08756017800591      1.87638660617918
  Br  -4.37649279943270     -0.15735158413941     -0.64125611840235
  O   0.78277133936424     -0.08305996440321     -1.33998446019198
  C   0.76154593127168      0.08024997001850     -2.75081125619249
  H   0.41741878406722      1.07388090017600     -3.04441988124791
  H   1.78097118421341     -0.03209625804130     -3.15587869763645
  H   0.14613171219164     -0.67695215686718     -3.23563980017636
