23
Coordinates from ORCA-job optts+numfreq_im21
  C   0.72033976151249     -1.21445271057017      1.24648774000819
  C   0.65987013393729      0.07645190430810      2.06101547966931
  C   -0.63257511795098      1.16533894516190      0.21717169009993
  H   -1.28592790687735     -0.18898800783645     -1.36692368172289
  C   0.58022001955798      1.28428652784447      1.13052246532480
  H   -0.72014685915984      2.03432455121440     -0.44004321331517
  H   -1.54498496625519      1.14449807862846      0.82519472855551
  C   -0.49292615189621     -1.32520307573407      0.32974855387266
  H   -0.21787119435601      0.05763978456536      2.71257202083800
  H   1.55109655667823      0.15674091915871      2.68692007827630
  C   -0.48337406199905     -0.11577196229887     -0.62995453071363
  H   -1.40611076773292     -1.36690589246998      0.93498591604963
  H   -0.46186609654396     -2.24941504926885     -0.25165534405070
  H   1.46238057870361      1.30084556123705      0.48866196912246
  H   0.53856882301104      2.21138640907937      1.70227413117749
  H   1.60050940182644     -1.18951354173211      0.60451834084660
  H   0.77978643777459     -2.08206533281106      1.90309030106922
  Br  -4.49389791908531     -0.16150459823349     -0.65575834905754
  O   0.78350778324003     -0.12297997430140     -1.34660739927952
  C   0.75295975551651      0.10372542977724     -2.74688377156489
  H   0.44998540469497      1.12381081588794     -2.99059848979167
  H   1.76373945993778     -0.03875544758040     -3.16127904955685
  H   0.09671692546584     -0.60349333402613     -3.25345958585724
