23
Coordinates from ORCA-job optts+numfreq_im18
  C   0.69645196114698     -1.20887181834612      1.19569048338940
  C   0.65866383892946      0.05637866480846      2.05137169976185
  C   -0.68887768176425      1.19560907898878      0.28007129855336
  H   -1.27514184502289     -0.10059691629306     -1.39611793768741
  C   0.54726750120266      1.29383583754641      1.16348560359034
  H   -0.80906138746162      2.08460276127697     -0.34330071259814
  H   -1.58109540000301      1.16086551207171      0.92534919285943
  C   -0.54227930089006     -1.29030723001471      0.31099950735239
  H   -0.19507582036181      0.01422390848356      2.73337726825458
  H   1.57242916446265      0.11967160595667      2.64633936624990
  C   -0.51006423071301     -0.05206093778642     -0.62171185411653
  H   -1.43354990185637     -1.35484306780202      0.95460972194612
  H   -0.54451630851585     -2.20094650916647     -0.29155614965628
  H   1.40103913936874      1.32674210905531      0.48707368571360
  H   0.52449031592473      2.20418013512455      1.76230819903410
  H   1.54729868997055     -1.15311847900537      0.51860828113265
  H   0.78431426650963     -2.09829038217100      1.81878130451100
  Br  -4.13376480356600     -0.14953753512809     -0.61131085872860
  O   0.77454513995998     -0.00226884317010     -1.32988350167375
  C   0.78257110232181      0.03224416243766     -2.75843809693535
  H   0.35601267440568      0.95814361528635     -3.15150996280524
  H   1.81368672926673     -0.01658485177000     -3.15545478326272
  H   0.25465615668527     -0.81907082038309     -3.18878175488471
