23
Coordinates from ORCA-job optts+numfreq_im0
  C   0.52694040729714     -1.16729787510183      1.15095493271634
  C   0.64175093863624     -0.00357216303928      2.13076466894285
  C   -1.04112111119593      1.28075355250602      0.78822204856832
  H   -0.39125529635860      0.25614252429603     -1.00792002666909
  C   0.35354008659143      1.30970832828883      1.40966058509204
  H   -1.23309926130411      2.21862766299494      0.26025089436633
  H   -1.80083170447258      1.15956062205490      1.56685890126139
  C   -0.86624009152723     -1.20248400483097      0.52617253365399
  H   -0.07463406843909     -0.13964009076585      2.94476560607716
  H   1.64606702065403      0.02162328592729      2.55693273229656
  C   -1.10719281331378      0.11691995202565     -0.18183954351821
  H   -1.62507154207294     -1.35339468109401      1.30059415120734
  H   -0.93323120615029     -2.02874434139546     -0.18760457258438
  H   1.08209451670396      1.44957171133592      0.60582893556181
  H   0.43104448982702      2.15200320085337      2.09977078475058
  H   1.25873557925425     -1.03775591189406      0.34801274277762
  H   0.72842239367909     -2.11583777320275      1.65308550999910
  Br  -2.87809802628052      0.07926119334905     -1.02171058896264
  O   1.08132931417596      0.47285119593402     -2.24080772484518
  C   1.05674743216634     -0.19185260165178     -3.37699876593697
  H   0.12150515030993     -0.02078443990190     -3.99461252426109
  H   1.90901584964033      0.06306651799221     -4.07455041091922
  H   1.11358194217935     -1.31872586468031     -3.25583086957464
