23
Coordinates from ORCA-job optts+numfreq_im16
  C   0.67587569930023     -1.20311356949736      1.15682380163925
  C   0.65668406937893      0.04210660697801      2.04158401505706
  C   -0.73823971947185      1.21991202767509      0.33558660380239
  H   -1.24946949330397     -0.03367453933746     -1.42303323481697
  C   0.52056628877198      1.29995203761728      1.18627703825697
  H   -0.87683202676516      2.11684909366373     -0.27166154578049
  H   -1.61156172229974      1.18449594324307      1.01508485165476
  C   -0.58666472927385     -1.26773864799342      0.30755208068057
  H   -0.17780974212588     -0.01825408102499      2.74574557839038
  H   1.58674224333034      0.09386901011019      2.61229220051494
  C   -0.53861230343761     -0.00651365344361     -0.60074488902550
  H   -1.45621908532860     -1.35971064674992      0.98521402975877
  H   -0.60894275292875     -2.16009162919246     -0.32053650119482
  H   1.35079427516726      1.34354640463650      0.48202742213367
  H   0.51375371844261      2.19646047832414      1.80191773148785
  H   1.50213092521369     -1.12153385454571      0.45187933503723
  H   0.78578468036232     -2.10680562606321      1.75088543321890
  Br  -3.87270134044858     -0.14329307421008     -0.57735440195939
  O   0.77781676495344      0.07948674736214     -1.33437423482849
  C   0.81511354353875     -0.01803658730516     -2.77576264743083
  H   0.30192558747854      0.81803332923223     -3.25935759199731
  H   1.85003905843722     -0.00141393902337     -3.18222695306994
  H   0.37982606100871     -0.95453183045560     -3.12781812152899
