23
Coordinates from ORCA-job optts+numfreq_NEB-CI_converged
  C   0.63269869258708     -1.17714900431192      1.08562081989413
  C   0.65110516088745      0.02369966039543      2.02172232261872
  C   -0.86909620563900      1.26226540269719      0.45349704737631
  H   -1.03082734288554      0.07438689520786     -1.44692906770950
  C   0.46975392482237      1.29320906695124      1.20022295559314
  H   -0.97428877081570      2.15312967410643     -0.16853738357281
  H   -1.66223798628474      1.27013397409466      1.20695034164201
  C   -0.70530940138225     -1.25396081257953      0.34036372296638
  H   -0.15321655149699     -0.06391627730375      2.75757736182667
  H   1.60279253154623      0.06148287525134      2.55597687840359
  C   -1.01968452400770      0.02381695190003     -0.38008554433885
  H   -1.48416364031552     -1.43054075066494      1.08796048788734
  H   -0.70197786339177     -2.09341910530267     -0.35812486639364
  H   1.26821851978623      1.35946823223635      0.46156105257168
  H   0.49239131012104      2.17808751282422      1.84041877874364
  H   1.42608059205395     -1.06435631059721      0.34617179892995
  H   0.77986507605316     -2.10741462404337      1.63898366695229
  Br  -3.40545246745472     -0.12737202015033     -0.51899564233703
  O   1.02015444908542      0.20504899114892     -1.52238911327347
  C   0.93055548992252     -0.07886344096420     -2.82956001726021
  H   0.25104534997749      0.60942323096405     -3.39883851167086
  H   1.92165025798048     -0.00269878296112     -3.33098579350396
  H   0.55994339885050     -1.11446133889871     -3.04258129534552
