23
Coordinates from ORCA-job optts+numfreq_XTB-NEB-CI_im0
  C   0.52823692224234     -1.16652768402091      1.15070906713556
  C   0.64245800604134     -0.00277162020542      2.13057082673932
  C   -1.04192125114069      1.28040973814497      0.78881407339611
  H   -0.39138026557045      0.25653739679097     -1.00730386112721
  C   0.35296243026772      1.31036079416990      1.40969855468969
  H   -1.23478127417077      2.21809935930084      0.26083867090259
  H   -1.80131326223984      1.15869640306099      1.56769616271456
  C   -0.86518421080511     -1.20273356504641      0.52656377340586
  H   -0.07359261810014     -0.13949299404353      2.94475043147323
  H   1.64686843285824      0.02319060239533      2.55644700070694
  C   -1.10723779588356      0.11656960852147     -0.18125632199918
  H   -1.62360599290667     -1.35419708693031      1.30128860619108
  H   -0.93196503423687     -2.02900933185345     -0.18722395375330
  H   1.08106795774743      1.45079113152986      0.60555438721241
  H   0.43018153046861      2.15266776554091      2.09981889292764
  H   1.25950487769736     -1.03631817925655      0.34739099383903
  H   0.73081765638312     -2.11492162425627      1.65268182095722
  Br  -2.87803154191860      0.07755003507875     -1.02122211250937
  O   1.07925716379348      0.47317988183315     -2.24199459566903
  C   1.05567470062493     -0.19253893415100     -3.37760737105501
  H   0.12172677796240     -0.02075180175119     -3.99697129217729
  H   1.90948664468009      0.06058832185184     -4.07391528786701
  H   1.11077014620566     -1.31937821670395     -3.25532846613385
