23
Coordinates from ORCA-job optts+numfreq_TSOpt_IRC_F
  C   0.71517046988551     -1.19255793619500      1.07558693621977
  C   0.68755043550763      0.01418453926377      2.01125081632450
  C   -0.68968887937157      1.25680769705760      0.32885169341682
  H   -1.33938188011190      0.07782146833309     -1.37512530778854
  C   0.54401605360818      1.31337626777093      1.22222724691707
  H   -0.82411467041504      2.18947459611391     -0.22238503640908
  H   -1.59370948405850      1.08459030081763      0.91585228043292
  C   -0.51819707760241     -1.20276015839093      0.17991223102939
  H   -0.15616555212860     -0.08263671598563      2.69909015516381
  H   1.60865456865672      0.04203375135056      2.59719439115752
  C   -0.51860886355899      0.08971425105581     -0.64522907134025
  H   -1.43424858650669     -1.22245430286025      0.77391191499319
  H   -0.53310235678252     -2.08125909000488     -0.46931576654597
  H   1.41053446932465      1.44372242722629      0.57334477302199
  H   0.47908924099588      2.16728782049272      1.89896242500697
  H   1.59038823046944     -1.12496894924504      0.42760877845404
  H   0.77328076863894     -2.11959057488972      1.64922703972050
  Br  -4.06416073868852     -0.16476661548367     -0.54912001474712
  O   0.72276148239169      0.27307148749080     -1.32236058668710
  C   0.77670108783693     -0.11550086819092     -2.66786650003129
  H   0.11449256335162      0.50452648881281     -3.28518451475311
  H   1.81175569910543      0.04064665640278     -2.96942097712374
  H   0.50785349361408     -1.16849311092362     -2.80879713287753
