23
Coordinates from ORCA-job optts+numfreq_product
  C   2.08406471888473     -1.51016878453608      0.09938354172106
  C   2.64662869095341     -0.09500881892776      0.18697507140766
  C   1.31237787645936      0.55760516818172     -1.83931877759754
  H   -0.19591275389250     -0.91005646160461     -1.36155292743423
  C   1.64905918755890      0.90337637778424     -0.39171606192458
  H   2.20814327232659      0.61643756846112     -2.46185023918857
  H   0.57814121629533      1.26980436218968     -2.22239451235390
  C   1.74864680540653     -1.86273797930254     -1.34579528027250
  H   2.85890073079700      0.15741874995405      1.22744461909358
  H   3.58020252895651     -0.03997533425111     -0.37660651112638
  C   0.74905218140990     -0.86473320941325     -1.93106433104373
  H   1.32140198492473     -2.86475689944199     -1.40986725381464
  H   2.64927260431660     -1.83927979323388     -1.96170883964398
  H   2.05582459359027      1.91559683407777     -0.34411948294222
  H   0.72797033845827      0.88669899539480      0.19802965539607
  H   2.80570142302112     -2.22819904266920      0.49271654130342
  H   1.17585078567218     -1.57589748564146      0.70408223662335
  Br  -3.81569879100550      0.52509349177073      0.16945872601776
  C   -0.62728449262639     -0.68175678305886     -3.87722847735694
  O   0.49767601697432     -1.27124283945166     -3.27204660209308
  H   -1.51227027209759     -0.76091194239725     -3.23392159451458
  H   -0.46011846767893      0.37558907993934     -4.10961499404769
  H   -0.79805274405690     -1.23202333669106     -4.80073358950672
