23
Coordinates from ORCA-job optts+numfreq_im25
  C   0.36316414717861     -0.80775530973232      1.89634294412215
  C   0.73688881387135      0.65738561287864      2.08162361679083
  C   0.18481470586487      1.12319222053660     -0.32498787252914
  H   -1.10804093260130     -0.59088682449729     -0.65436462184863
  C   -0.08642128793879      1.51376693027605      1.12679183420335
  H   1.22164453819439      1.35273447376925     -0.57644419424819
  H   -0.46681303901438      1.70650062083122     -0.98257168195890
  C   0.64214556908124     -1.24756360766158      0.46419713317892
  H   0.55304168359592      0.96450791493001      3.11322076085782
  H   1.79818131120774      0.79241102471191      1.86590230486650
  C   -0.03099750164870     -0.37271926331378     -0.60028215452942
  H   0.31427202781730     -2.27932552003399      0.31621852714750
  H   1.71347023393373     -1.20329897303442      0.26516225246773
  H   0.15998081070939      2.56973902003425      1.25918504437808
  H   -1.14905917085460      1.39022455035616      1.34910871992798
  H   0.94308384689420     -1.43560854698503      2.57580761346104
  H   -0.69592610246083     -0.94479857768216      2.12720754493425
  Br  -4.65578343964676      0.10505117999879     -0.43552554993813
  C   -0.12877186420695     -0.64524580257970     -3.01624393188574
  O   0.60559349980026     -0.75728434168882     -1.82314545890571
  H   -1.07637114313315     -1.19334495410209     -2.95924264955270
  H   -0.34253030430233      0.39514226682837     -3.28504639533597
  H   0.50443359765877     -1.09282409384008     -3.78291378560362
