23
Coordinates from ORCA-job optts+numfreq_XTB-NEB-CI_im0
  C   0.04505980949385     -0.83989999553346      1.75556906839836
  C   0.92564825934027      0.40392108515686      1.68663366967548
  C   -0.65706294917036      1.43697076503841      0.04900904699577
  H   -1.97422821687880      0.03518235422324     -0.91878295075072
  C   0.07735993340580      1.63206215207573      1.37129775351217
  H   0.06018324775406      1.28715003205877     -0.76586467470550
  H   -1.26855070306232      2.31343403750143     -0.18611031643585
  C   -0.68972029723290     -1.03580103611778      0.43422799558243
  H   1.45314194591606      0.54359898261735      2.63236640613812
  H   1.66372072758417      0.26942153490500      0.89120286910848
  C   -1.50619711961775      0.18211380331143      0.05739026096316
  H   -1.32165856724875     -1.92881930217392      0.47063941753306
  H   0.02719216750517     -1.15377246378200     -0.39043854429149
  H   0.71016571091671      2.51894208981280      1.30316944141516
  H   -0.64876871766398      1.79387992610989      2.17373216316350
  H   0.65464288037005     -1.72206964979191      1.96139158997476
  H   -0.68169557383934     -0.73300079002846      2.56704077831149
  Br  -3.00682826598756      0.39658495302684      1.29039353994962
  C   1.22234821092812     -1.07075282023759     -3.26427168634237
  O   0.77317940313921     -0.34967900537932     -2.26257947293488
  H   2.31560676020874     -1.36191925078829     -3.17440977926594
  H   0.67880017019796     -2.05806556314324     -3.40752648346482
  H   1.14766118394159     -0.55948183886176     -4.27408009253000
