23
Coordinates from ORCA-job optts+numfreq_im0
  C   0.04517645536675     -0.83976129179882      1.75589276902527
  C   0.92592763118381      0.40395707201121      1.68724924040402
  C   -0.65610621073179      1.43725601959254      0.04912461896153
  H   -1.97240736251551      0.03547745499357     -0.91965515482034
  C   0.07780068296775      1.63215433550528      1.37171922574808
  H   0.06127751417296      1.28761608972106     -0.76565227463369
  H   -1.26755230087303      2.31373029614896     -0.18606555549539
  C   -0.68925504996204     -1.03564882946441      0.43436551982015
  H   1.45313832045623      0.54355270022170      2.63314864695407
  H   1.66426472858372      0.26943273356121      0.89206664161187
  C   -1.50526444839763      0.18240710502657      0.05693089524049
  H   -1.32153101655566     -1.92843077521113      0.47078838625596
  H   0.02763585933538     -1.15409964863818     -0.39022765998000
  H   0.71059939824741      2.51907327549213      1.30401666100071
  H   -0.64868661368778      1.79381303988759      2.17385692124636
  H   0.65454831339480     -1.72201768554789      1.96198061102387
  H   -0.68184850549042     -0.73271117992141      2.56709710000273
  Br  -3.00669848124592      0.39700860451248      1.28882055371169
  C   1.22054833052607     -1.07132978205899     -3.26483074938404
  O   0.76574125510859     -0.34989778951315     -2.26594583840795
  H   2.31433856235624     -1.35913663053006     -3.17060739093522
  H   0.68041175586521     -2.06046467545314     -3.40832800529291
  H   1.14794118189486     -0.56198043853712     -4.27574516205726
