23
Coordinates from ORCA-job optts+numfreq_im7
  C   0.11062053215816     -0.81081436818553      1.83425677426364
  C   0.88073783619208      0.50627495274596      1.86275810953071
  C   -0.46259684348445      1.36850025898933     -0.06095614743331
  H   -1.40209620298787     -0.18970260669024     -1.21687640239203
  C   -0.00958471737266      1.64171416231534      1.36613610901727
  H   0.39005442001266      1.33902344242081     -0.74424428276119
  H   -1.13995650972683      2.15264865833225     -0.41657905239224
  C   -0.34179146769687     -1.12504773144512      0.41433227198919
  H   1.21570640284679      0.71646227450494      2.88023706180355
  H   1.75641441028892      0.42581284049402      1.21445440439514
  C   -1.14541187733671      0.01922293003357     -0.17550509121748
  H   -0.93780338030268     -2.04477437754626      0.38767472895076
  H   0.52075930201502     -1.26850911976335     -0.24463026670874
  H   0.52845825548011      2.59139087536013      1.39809534319381
  H   -0.88871545887587      1.72409403217990      2.00947554833533
  H   0.73470327729812     -1.62754872602624      2.20415993767232
  H   -0.76768733882184     -0.73357310142317      2.47937074925908
  Br  -2.86147195730198      0.10864146287087      0.75807521440991
  C   0.76393643445302     -0.95032529600378     -3.17950880880683
  O   0.73315076286984     -0.12421287526519     -2.16489689039782
  H   1.22331099756672     -1.95955752862007     -2.93939158563120
  H   -0.25832973274852     -1.20337564684387     -3.61079091147822
  H   1.35759285547485     -0.55634451243429     -4.05564681360167
