23
Coordinates from ORCA-job optts+numfreq_im17
  C   0.23313553128096     -0.79640228893348      1.83224138942780
  C   0.82979079271794      0.59243793631833      1.99571760466345
  C   -0.06686184094044      1.27553459589973     -0.24234045874850
  H   -1.28274417854677     -0.38787408623587     -0.97944022029620
  C   -0.05594044791116      1.57953386975792      1.25265807523812
  H   0.90605504316302      1.56024912191459     -0.65045486031200
  H   -0.83223668577727      1.88578090517152     -0.72608304547536
  C   0.22904469841627     -1.22531764416536      0.36329363935332
  H   0.89433469255974      0.86009588097063      3.05202023092582
  H   1.83551794799122      0.61111983168473      1.56966767886885
  C   -0.24294898746517     -0.19134374295907     -0.68320803627624
  H   -0.36515108017193     -2.13677055750778      0.26824032736830
  H   1.25960765074617     -1.45518714379986      0.08156357193179
  H   0.31524422844481      2.59903417038764      1.37882601798048
  H   -1.06896167785012      1.53898949042195      1.66188607326833
  H   0.81964594111827     -1.53011017611858      2.39045507683244
  H   -0.78112294775599     -0.79959078218664      2.24186213929641
  Br  -3.90908762020128      0.11067973908757      0.27637320945111
  C   0.21823372524191     -0.84568382995069     -3.05659050692012
  O   0.63276078652907     -0.30692027415375     -1.82613564512442
  H   -0.01448870367271     -1.91557641507667     -3.00171343098084
  H   -0.63841954551502     -0.31763848703460     -3.49200911224414
  H   1.08459267759848     -0.70504011349226     -3.70682971822841
