23
Coordinates from ORCA-job optts+numfreq_im20
  C   0.28122092365035     -0.79791790838107      1.86646892480169
  C   0.79917429437844      0.62236841940490      2.03996030433759
  C   0.03010082860713      1.22228263439095     -0.26960820058267
  H   -1.21298620618939     -0.46853820036223     -0.87191335691289
  C   -0.07065377127138      1.56055149696210      1.21560580251565
  H   1.03060533873621      1.48393753269807     -0.61838618083949
  H   -0.69445164925854      1.82533151897368     -0.82429996202460
  C   0.38686122312159     -1.23571571182276      0.40745604870861
  H   0.77361532571541      0.91015699662643      3.09302737973561
  H   1.83109125840838      0.68045687087360      1.68932004283070
  C   -0.15867012273886     -0.25776652072313     -0.65094664441327
  H   -0.10925380742809     -2.20221067537923      0.28471525672275
  H   1.44212501773012     -1.36165095238146      0.15896500681945
  H   0.25308705021192      2.59548915909139      1.34857121431588
  H   -1.10722284009746      1.48904589214097      1.55321846940824
  H   0.87019068849384     -1.49229702753978      2.47036477985413
  H   -0.75477840224539     -0.84917558193118      2.20957860084735
  Br  -4.19607932686148      0.10626503450983      0.00646891901910
  C   0.07837558013348     -0.77622902578072     -3.06471402068527
  O   0.65703965892968     -0.47929796615884     -1.81953214051408
  H   -0.47503290576206     -1.72200917386045     -3.05148469164514
  H   -0.58428183162551      0.01596874869732     -3.43138513345860
  H   0.92992367536159     -0.86904556004838     -3.74145041884072
