23
Coordinates from ORCA-job optts+numfreq_im15
  C   0.19610339272032     -0.79648863999174      1.80278098537184
  C   0.84792325773038      0.56746808639647      1.95423224301808
  C   -0.13766007617282      1.31034983193870     -0.22875741392760
  H   -1.33349958130835     -0.33074347381466     -1.05392508703955
  C   -0.04316303022400      1.58897273386538      1.26895465096342
  H   0.81074743125506      1.61597847604172     -0.67967946833196
  H   -0.93210480281546      1.92340256174828     -0.65492484195719
  C   0.11257931857890     -1.21444578341594      0.33035327320261
  H   0.97553346349557      0.81916615761896      3.00876133073511
  H   1.83045524299988      0.55844163560823      1.47550203543176
  C   -0.30498090763718     -0.14697277833489     -0.70831529941260
  H   -0.54913421704320     -2.07906104592413      0.25853608286447
  H   1.11683094389047     -1.51899281715282      0.02316681388847
  H   0.36296012470570      2.59600206026475      1.38683508489220
  H   -1.03425493873097      1.57259227609004      1.73154661775922
  H   0.77759814606151     -1.55816982707319      2.32796616944483
  H   -0.79828692157447     -0.76695403701965      2.25962289719239
  Br  -3.68930041778720      0.09661556166004      0.48425893787554
  C   0.32552376268907     -0.88509011931224     -3.03407317561890
  O   0.60088477184644     -0.20485437290694     -1.83263267971891
  H   0.31641661755293     -1.97645444985719     -2.92711895598630
  H   -0.60985371744383     -0.56713434526511     -3.51043437736740
  H   1.15868213721125     -0.60362769116407     -3.68265582327954
