23
Coordinates from ORCA-job optts+numfreq_im26
  C   0.38056651590575     -0.81096755599840      1.89828310197551
  C   0.72276037144395      0.66197082890034      2.08577121363639
  C   0.21700772669006      1.10303788112346     -0.33611180235326
  H   -1.08526906613877     -0.60966747265629     -0.60718018496591
  C   -0.08825353786575      1.50259857592754      1.10615989454483
  H   1.26015542600169      1.32616016728209     -0.56708056567388
  H   -0.41797239410519      1.68192851191074     -1.01318365452491
  C   0.69238616200672     -1.24928192320906      0.47253584219163
  H   0.50569804471548      0.96986908553915      3.11052995810649
  H   1.78729186760439      0.81473270640046      1.89886159814826
  C   -0.00554257796473     -0.39457106437565     -0.59073474935271
  H   0.39752405201014     -2.29033213570071      0.32269609872810
  H   1.76372194466574     -1.17237045214125      0.28364677425964
  H   0.14260526535324      2.56213551711929      1.23746064637945
  H   -1.15463626159689      1.36769579298403      1.30410739570495
  H   0.95752455846848     -1.42534097855581      2.59223531225541
  H   -0.68056936405417     -0.96673187573916      2.10759055140858
  Br  -4.75539084628019      0.11056044677465     -0.52850518136266
  C   -0.16831104513053     -0.61963515870606     -2.99775740896860
  O   0.58541589582236     -0.80420992252700     -1.82572495289461
  H   -1.16024644500156     -1.07901388743228     -2.91405839325987
  H   -0.29414338778596      0.43812930321486     -3.25368692287897
  H   0.39767709523576     -1.11669639013493     -3.78585457110387
