23
Coordinates from ORCA-job optts+numfreq_XTB-NEB-CI_im10
  C   0.37060188390909     -0.81464200740300      1.88289447759651
  C   0.72805339177247      0.65332955880427      2.07800076571248
  C   0.23649778442102      1.11837001059152     -0.33922563762168
  H   -1.06057372069884     -0.59006022243022     -0.62311947960783
  C   -0.07881539394450      1.50339869075033      1.10371561838874
  H   1.27910971634749      1.35142770157135     -0.56634918954436
  H   -0.39946311262879      1.69552805567315     -1.01567043440428
  C   0.69934395264200     -1.24870346423562      0.46080523401121
  H   0.51699927554759      0.95836828898685      3.10410749658198
  H   1.79352005183050      0.79650705022724      1.88709278937218
  C   0.02002279544878     -0.37878262954664     -0.60024973129677
  H   0.39331188576642     -2.28384000939853      0.29744421543091
  H   1.77449288867815     -1.18376396370594      0.28592920576544
  H   0.14347547570476      2.56286120339053      1.24823101470461
  H   -1.14595868365737      1.35819770521726      1.29185110051222
  H   0.92377618869206     -1.44062039119890      2.58540374081640
  H   -0.69713397235831     -0.95488492205418      2.07038214223345
  Br  -4.84479716684218      0.09286847129957     -0.41916840490342
  C   -0.17121532460770     -0.62524703434360     -2.98943898366008
  O   0.61453764756338     -0.77607140112315     -1.83610157767443
  H   -1.12406929908783     -1.15754165727949     -2.88944697254471
  H   -0.38071156268226      0.42504744170748     -3.21649241982532
  H   0.40899529818407     -1.06174647550028     -3.80059497004325
