23
Coordinates from ORCA-job optts+numfreq_XTB-NEB-CI_im6
  C   0.12857203707667     -0.80016687911248      1.81216075357065
  C   0.86744065808639      0.52696595495608      1.89472565821580
  C   -0.32247801516799      1.35608838137247     -0.15546625488815
  H   -1.43704527635717     -0.25141327471770     -1.24383138728702
  C   -0.02365866126717      1.61872719586407      1.32277673061665
  H   0.58879745169368      1.52534776337243     -0.73074839221442
  H   -1.08234041536332      2.05602118129167     -0.51057378575808
  C   -0.16521579347444     -1.17066904971678      0.35292991070941
  H   1.12248557084191      0.75247508817398      2.93234094712912
  H   1.78821985416370      0.46814886063685      1.31183108170722
  C   -0.63580479700074     -0.06088906890923     -0.55974324906032
  H   -0.83998994454681     -2.03115746223092      0.32595966918732
  H   0.77440023078929     -1.45561018992893     -0.11563143141606
  H   0.46315469621430      2.59444060448952      1.40399601510625
  H   -0.95311869979468      1.66236089541922      1.89389435354080
  H   0.72850283743271     -1.60172298830513      2.25294995822230
  H   -0.80049152527716     -0.73185866150493      2.38169374680927
  Br  -3.13180947657012      0.06692137152151      0.74699396475619
  C   0.57428022033326     -0.93069527653121     -3.08093754912333
  O   0.58994152600891     -0.11861026782609     -1.94934377555147
  H   0.84095779452871     -1.98005731828997     -2.86885862510465
  H   -0.39384508498916     -0.93081151771806     -3.60341081210197
  H   1.31904481263925     -0.56383534230640     -3.81370752706550
