23
Coordinates from ORCA-job optts+numfreq_im12
  C   0.12980522980231     -0.80164463751056      1.80558076179695
  C   0.86806847634510      0.52489753963608      1.88613612889136
  C   -0.34298699882916      1.36296160753336     -0.14970676740334
  H   -1.43537363433377     -0.24713267912342     -1.26552733089401
  C   -0.02232542789022      1.62184874917573      1.32408987400439
  H   0.56252840630084      1.53589093596282     -0.73699716882629
  H   -1.10880751168520      2.06150273669652     -0.49371648680206
  C   -0.18187843767971     -1.16888819566796      0.34944861826924
  H   1.13848812065358      0.74692298793396      2.91919500488817
  H   1.78441634657599      0.46461452067699      1.28892884415966
  C   -0.65451627480063     -0.05596262436488     -0.56246130406540
  H   -0.86056233372781     -2.02607849374185      0.32661377677223
  H   0.75325519934423     -1.45904449575971     -0.13024193516890
  H   0.46837062723153      2.59442425006680      1.40270828143859
  H   -0.94751308473822      1.67001040154221      1.91101359932857
  H   0.73006888749957     -1.60415722202757      2.24139361072941
  H   -0.79702475046506     -0.73156608938542      2.38744117243198
  Br  -3.06766661634130      0.04466847615142      0.76964010480690
  C   0.58610818600852     -0.93258943255044     -3.07138983242897
  O   0.59118841737027     -0.09931998554772     -1.95499926865167
  H   0.88230488718622     -1.97288737692167     -2.84283635286965
  H   -0.38977620260349     -0.96679913804171     -3.58295651463859
  H   1.31382848877642     -0.56167183473297     -3.82135681576857
