23
Coordinates from ORCA-job optts+numfreq_im14
  C   0.17266273858300     -0.79676404205327      1.78560347990492
  C   0.85735876938333      0.55163727283931      1.92582013795117
  C   -0.18229413138596      1.32953575340123     -0.22104982017374
  H   -1.36389336052101     -0.29783786960321     -1.10255188663065
  C   -0.03580008031977      1.59354662050825      1.27582131381921
  H   0.74725362692304      1.64455820219637     -0.69925734473735
  H   -0.99457653565051      1.94589916025129     -0.60993440423313
  C   0.03912371107228     -1.20528305037146      0.31323163220707
  H   1.02447601240456      0.79319490739424      2.97721276388142
  H   1.82272152203087      0.52603620439908      1.41407744364534
  C   -0.34963821057041     -0.12288702951403     -0.72412716770580
  H   -0.66139531203883     -2.04157493066920      0.25797043982575
  H   1.02159904540310     -1.55074681465969     -0.01353713026334
  H   0.39246541413613      2.59233432264108      1.38676931344219
  H   -1.01024845331236      1.59334358192762      1.77312925441122
  H   0.75209794854840     -1.57468714802646      2.28914176690852
  H   -0.80610050041532     -0.74904385947103      2.27423070232932
  Br  -3.54066484751589      0.08031867591487      0.61383345331964
  C   0.39329682538186     -0.90438565355055     -3.01760612591947
  O   0.58062091215986     -0.15560405336703     -1.83628769252705
  H   0.50631046546637     -1.98562511582543     -2.87512884531944
  H   -0.56371192707835     -0.70963901137578     -3.51516590416035
  H   1.19833636731563     -0.55632612298620     -3.67219537997545
