23
Coordinates from ORCA-job optts+numfreq_XTB-NEB-CI_im3
  C   0.11910194381952     -0.80576889764921      1.83129798031271
  C   0.87017033777898      0.52004800200208      1.88709359725299
  C   -0.39393562013305      1.36178387902374     -0.10549047479757
  H   -1.38903797834470     -0.22913418205496     -1.26628869336082
  C   -0.01856646123590      1.63438759251264      1.34617930406702
  H   0.49796575503149      1.42279687083687     -0.73803781123622
  H   -1.10399312093848      2.10750993062500     -0.47386261952262
  C   -0.25776383380001     -1.14929624667315      0.39357836360760
  H   1.15723105944858      0.74022473980625      2.91717153279247
  H   1.77523294953913      0.45121580084174      1.27852474936260
  C   -0.98696430405025     -0.01285877836645     -0.28519139776136
  H   -0.88503063903081     -2.04542202810797      0.35967506278419
  H   0.65210750380778     -1.36229008948154     -0.17648398376165
  H   0.49162015774900      2.59693885260353      1.40640161915567
  H   -0.92985579855342      1.69235304259339      1.94612607774402
  H   0.73130039430345     -1.61185508125873      2.23962332424653
  H   -0.79031531524031     -0.73078009752338      2.43197629635603
  Br  -2.89276242635285      0.07731783422103      0.72073284542686
  C   0.66854494181213     -0.93110017134249     -3.13722719166477
  O   0.66887285938823     -0.13458623724944     -2.08561439178604
  H   0.98735110141172     -1.98982514779533     -2.91183541502928
  H   -0.33706984491798     -1.03123591356557     -3.64126543570668
  H   1.36579633850775     -0.57042367399806     -3.93708333848168
