23
Coordinates from ORCA-job optts+numfreq_im16
  C   0.21504964368821     -0.79649226741757      1.81810680825917
  C   0.83929776013543      0.58054964962949      1.97634518453572
  C   -0.10010887830628      1.29307748832500     -0.23491258153839
  H   -1.30674516544614     -0.35959785365041     -1.01500996677355
  C   -0.05019198513634      1.58441134934732      1.26160347840237
  H   0.85999692393917      1.58716994571609     -0.66384143093307
  H   -0.88102073966187      1.90469692598794     -0.69200244637667
  C   0.17399505619100     -1.22026876383241      0.34719476610273
  H   0.93422101716123      0.84053074712683      3.03234527402521
  H   1.83398985750967      0.58573479747858      1.52482426411556
  C   -0.27485526490755     -0.16976937712724     -0.69580852248881
  H   -0.45472889482970     -2.11026933121698      0.26272434600741
  H   1.19111079375327     -1.48657305046518      0.05328422054275
  H   0.33835002478718      2.59816375682507      1.38416865864342
  H   -1.05252112364941      1.55546980937330      1.69678635446870
  H   0.79972587497898     -1.54389161532595      2.36040503998330
  H   -0.78949585466655     -0.78335065551902      2.25066107075735
  Br  -3.80499325659965      0.10681806780280      0.37623162066888
  C   0.26952593689522     -0.86636752017408     -3.04701181617691
  O   0.61814158620481     -0.25383810758127     -1.82921398840884
  H   0.14927030439207     -1.95305684797982     -2.96844710709837
  H   -0.63167743928379     -0.44061111761712     -3.50350130191739
  H   1.12366382285104     -0.65253602970538     -3.69493192480056
