23
Coordinates from ORCA-job optts+numfreq_XTB-NEB-CI_im2
  C   0.11042923487882     -0.80872265452337      1.83531206548990
  C   0.87605767903717      0.51003548996047      1.87379563632258
  C   -0.44190813734068      1.36693645056790     -0.07226533052019
  H   -1.41408281322212     -0.19776338242130     -1.22447376639181
  C   -0.01080946241179      1.64006089826120      1.36135046876668
  H   0.42607754557487      1.36151897054394     -0.73849083780191
  H   -1.12353503782325      2.14278032803773     -0.43423250644171
  C   -0.32368327207543     -1.12911022144544      0.41142009587694
  H   1.19525332442662      0.72264553558100      2.89542679323469
  H   1.76244465597990      0.43211681249926      1.23871352940141
  C   -1.11431251434793      0.01395226223775     -0.19803326435049
  H   -0.92807626278613     -2.04183758441686      0.38159007918758
  H   0.55566074424860     -1.29436397776737     -0.22047766907363
  H   0.51960372786285      2.59251461567336      1.40140257964518
  H   -0.90075945340292      1.71594462718531      1.99133189394539
  H   0.73014446935027     -1.62341804345694      2.21373346858310
  H   -0.77701978312206     -0.73207903608643      2.46875625523348
  Br  -2.86575382726590      0.10958198840075      0.75066552584242
  C   0.74433688212629     -0.94864446554123     -3.17623053737390
  O   0.71431066509700     -0.14693939241213     -2.14123693343558
  H   1.16030266421394     -1.97615388081388     -2.95188073084721
  H   -0.26910052886966     -1.15235723488318     -3.64230050980743
  H   1.37441949987154     -0.55669810518055     -4.02387630548547
