23
Coordinates from ORCA-job optts+numfreq_TSOpt_IRC_B
  C   0.16236695625713     -0.81239645932302      1.70672186853239
  C   0.84178130435538      0.53232347575597      1.91109899084568
  C   -0.13896885726502      1.40938780404015     -0.22534788536725
  H   -1.28009725708512     -0.19626513975095     -1.13060226421429
  C   -0.04020812810675      1.59963332405416      1.28400293359063
  H   0.76283101522274      1.80859532736458     -0.69395509691799
  H   -0.99195816834765      1.98033437362526     -0.59858112622050
  C   0.09095207949206     -1.17865618132499      0.22444904732198
  H   0.97078941015041      0.73126717290929      2.97678684180877
  H   1.82176822423766      0.53019088425852      1.43015438460155
  C   -0.25971215164796     -0.03457059656217     -0.75596972170267
  H   -0.64706478675136     -1.97684296556810      0.10594642773318
  H   1.06383139133567     -1.56744362620550     -0.08497187967343
  H   0.35667083112598      2.59917466666843      1.47608187947963
  H   -1.03548279873665      1.54440995092932      1.72997970945955
  H   0.70021761745420     -1.60550884983020      2.23219936609668
  H   -0.84599121722185     -0.76409410453998      2.12413418758603
  Br  -3.55619412276129     -0.06531852792505      0.71762468113511
  C   0.38814571482588     -0.94902849618098     -2.91630071476939
  O   0.64159002329225     -0.04575822042214     -1.87001956821993
  H   0.55288201033357     -1.99153076144850     -2.62098715356514
  H   -0.63556687385901     -0.84523238298515     -3.29538143637640
  H   1.09545878959996     -0.67719049253588     -3.70007010625313
