23
Coordinates from ORCA-job optts+numfreq_NEB-CI_converged
  C   0.12775441722228     -0.80394429998196      1.82015845404439
  C   0.86752884950471      0.52621593092353      1.88911345414254
  C   -0.36332366871532      1.36159415619636     -0.13054169396525
  H   -1.38756480209192     -0.24963017928537     -1.29273218852684
  C   -0.02581860297152      1.62884269764075      1.33517718448100
  H   0.54023773276917      1.48469539170749     -0.73651916087881
  H   -1.10354781344393      2.07984057680989     -0.49310454724200
  C   -0.20339924113024     -1.16350933907491      0.37058340399694
  H   1.13823540811175      0.74909703478602      2.92353643419077
  H   1.78069543440958      0.46582167960019      1.29307128448935
  C   -0.83064505176557     -0.03533430786668     -0.39806627103996
  H   -0.85160417651190     -2.04446520659284      0.33672667570152
  H   0.72532768580886     -1.41246418278360     -0.14864687575666
  H   0.47102298319422      2.59868730850105      1.40694237264343
  H   -0.94702790583994      1.67607394152102      1.91977889859945
  H   0.73512067465754     -1.60467572847842      2.24828885773236
  H   -0.79488379498846     -0.73353143322222      2.39988856167301
  Br  -2.95459997369955      0.04168307347349      0.72063432534495
  C   0.61006628722551     -0.92466064438046     -3.09850989672521
  O   0.64552302901082     -0.10767256773726     -2.03001798288482
  H   0.87992449942694     -1.98301337375941     -2.86116303093510
  H   -0.38829568158190     -0.96226239789358     -3.59795737139866
  H   1.32927371139888     -0.58738813010308     -3.87664088768641
