23
Coordinates from ORCA-job optts+numfreq_TSOpt_IRC_F
  C   0.13310825530178     -0.80901816669162      1.84009720639319
  C   0.81749911596854      0.54751240095902      1.97817910554157
  C   -0.37930778556004      1.36765488281065     -0.06176458008862
  H   -1.13650739628131     -0.19969540825867     -1.31942823341321
  C   -0.07120183497691      1.64642094389974      1.40340515040591
  H   0.53433962037064      1.35136774198134     -0.66585696857308
  H   -1.03542300366609      2.13883291776436     -0.47796253111874
  C   -0.16691584838360     -1.10024231748658      0.37566916618003
  H   1.02919502046584      0.75173921082677      3.02908302198413
  H   1.76222024713329      0.52799471480434      1.42860918923174
  C   -0.99959483392550     -0.00184089346765     -0.25634414997906
  H   -0.66848166437048     -2.06741820563185      0.26241655216662
  H   0.75598675748803     -1.13388627741130     -0.21514704081809
  H   0.42142402591798      2.61652059492564      1.48874854471335
  H   -1.00979118471622      1.68987058156596      1.96339648285479
  H   0.76905192105429     -1.59971820937624      2.24264725925820
  H   -0.80479687239332     -0.80722742975589      2.40287489747074
  Br  -2.79601597094348     -0.02823799051309      0.48974409469271
  C   0.57385479577467     -0.97138508913612     -3.17494563935203
  O   1.02390363979797     -0.10992992973284     -2.29660803391452
  H   0.64596161147273     -2.05690534903494     -2.84562735608962
  H   -0.52782185347105     -0.84309627563626     -3.44944826253251
  H   1.11127223204200     -0.93479262240784     -4.16873123992460
